data_e+0.8-opt
_audit_creation_date              2024-12-22
_audit_creation_method            'Materials Studio'
_symmetry_space_group_name_H-M    'P1'
_symmetry_Int_Tables_number       1
_symmetry_cell_setting            triclinic
loop_
_symmetry_equiv_pos_as_xyz
  x,y,z
_cell_length_a                    12.4761
_cell_length_b                    12.7391
_cell_length_c                    19.9920
_cell_angle_alpha                 90.0000
_cell_angle_beta                  90.0000
_cell_angle_gamma                 90.0000
loop_
_atom_site_label
_atom_site_type_symbol
_atom_site_fract_x
_atom_site_fract_y
_atom_site_fract_z
_atom_site_U_iso_or_equiv
_atom_site_adp_type
_atom_site_occupancy
C1     C     0.05208   0.04519   0.15399   1.00000  Uiso   1.00
C2     C     0.15237   0.09996   0.15403   1.00000  Uiso   1.00
C3     C     0.15176   0.21126   0.15375   1.00000  Uiso   1.00
C4     C     0.05208   0.26634   0.15344   1.00000  Uiso   1.00
C5     C     0.25321   0.04552   0.15422   1.00000  Uiso   1.00
C6     C     0.35334   0.10162   0.15469   1.00000  Uiso   1.00
C7     C     0.35224   0.21439   0.15455   1.00000  Uiso   1.00
C8     C     0.25115   0.26704   0.15382   1.00000  Uiso   1.00
C9     C     0.45325   0.04637   0.15522   1.00000  Uiso   1.00
C10    C     0.55208   0.10570   0.15581   1.00000  Uiso   1.00
C11    C     0.55207   0.21974   0.15643   1.00000  Uiso   1.00
C12    C     0.45000   0.27495   0.15574   1.00000  Uiso   1.00
C13    C     0.65091   0.04637   0.15538   1.00000  Uiso   1.00
C14    C     0.75082   0.10162   0.15496   1.00000  Uiso   1.00
C15    C     0.75191   0.21439   0.15497   1.00000  Uiso   1.00
C16    C     0.65414   0.27495   0.15612   1.00000  Uiso   1.00
C17    C     0.85095   0.04552   0.15445   1.00000  Uiso   1.00
C18    C     0.95179   0.09997   0.15419   1.00000  Uiso   1.00
C19    C     0.95240   0.21126   0.15398   1.00000  Uiso   1.00
C20    C     0.85301   0.26704   0.15428   1.00000  Uiso   1.00
C21    C     0.05208   0.37816   0.15273   1.00000  Uiso   1.00
C22    C     0.15031   0.43402   0.15246   1.00000  Uiso   1.00
C23    C     0.15030   0.54511   0.15212   1.00000  Uiso   1.00
C24    C     0.05207   0.60097   0.15208   1.00000  Uiso   1.00
C25    C     0.24939   0.37829   0.15323   1.00000  Uiso   1.00
C26    C     0.34717   0.43304   0.15430   1.00000  Uiso   1.00
C27    C     0.34716   0.54614   0.15378   1.00000  Uiso   1.00
C28    C     0.24937   0.60086   0.15251   1.00000  Uiso   1.00
C29    C     0.75697   0.43305   0.15506   1.00000  Uiso   1.00
C30    C     0.75698   0.54615   0.15448   1.00000  Uiso   1.00
C31    C     0.85477   0.37830   0.15385   1.00000  Uiso   1.00
C32    C     0.95384   0.43403   0.15282   1.00000  Uiso   1.00
C33    C     0.95384   0.54511   0.15247   1.00000  Uiso   1.00
C34    C     0.85477   0.60086   0.15305   1.00000  Uiso   1.00
C35    C     0.05208   0.71279   0.15244   1.00000  Uiso   1.00
C36    C     0.15175   0.76788   0.15275   1.00000  Uiso   1.00
C37    C     0.05208   0.93394   0.15364   1.00000  Uiso   1.00
C38    C     0.25114   0.71210   0.15275   1.00000  Uiso   1.00
C39    C     0.35223   0.76477   0.15348   1.00000  Uiso   1.00
C40    C     0.35333   0.87753   0.15403   1.00000  Uiso   1.00
C41    C     0.25321   0.93362   0.15389   1.00000  Uiso   1.00
C42    C     0.44999   0.70424   0.15450   1.00000  Uiso   1.00
C43    C     0.55208   0.75943   0.15521   1.00000  Uiso   1.00
C44    C     0.55208   0.87344   0.15509   1.00000  Uiso   1.00
C45    C     0.45325   0.93277   0.15487   1.00000  Uiso   1.00
C46    C     0.65416   0.70424   0.15480   1.00000  Uiso   1.00
C47    C     0.75193   0.76478   0.15381   1.00000  Uiso   1.00
C48    C     0.75083   0.87753   0.15427   1.00000  Uiso   1.00
C49    C     0.65091   0.93277   0.15502   1.00000  Uiso   1.00
C50    C     0.85302   0.71211   0.15313   1.00000  Uiso   1.00
C51    C     0.95240   0.76789   0.15294   1.00000  Uiso   1.00
C52    C     0.85095   0.93362   0.15409   1.00000  Uiso   1.00
C53    C     0.15237   0.87917   0.15339   1.00000  Uiso   1.00
C54    C     0.95179   0.87917   0.15353   1.00000  Uiso   1.00
N55    N     0.44461   0.38361   0.15639   1.00000  Uiso   1.00
N56    N     0.44456   0.59564   0.15525   1.00000  Uiso   1.00
N57    N     0.65953   0.38362   0.15700   1.00000  Uiso   1.00
N58    N     0.65956   0.59565   0.15576   1.00000  Uiso   1.00
Fe59   Fe    0.55199   0.48986   0.16481   1.00000  Uiso   1.00
N60    N     0.55088   0.49350   0.25871   1.00000  Uiso   1.00
O61    O     0.63895   0.49605   0.28924   1.00000  Uiso   1.00
O62    O     0.46215   0.49380   0.28852   1.00000  Uiso   1.00
loop_
_geom_bond_atom_site_label_1
_geom_bond_atom_site_label_2
_geom_bond_distance
_geom_bond_site_symmetry_2
_ccdc_geom_bond_type
C1     C2      1.433   .     D
C1     C18     1.433   1_455 S
C1     C37     1.417   1_545 S
C2     C3      1.418   .     S
C2     C5      1.437   .     S
C3     C4      1.428   .     D
C3     C8      1.429   .     S
C4     C19     1.428   1_455 S
C4     C21     1.425   .     S
C5     C6      1.439   .     S
C5     C41     1.426   1_545 D
C6     C7      1.437   .     S
C6     C9      1.432   .     D
C7     C8      1.429   .     S
C7     C12     1.443   .     D
C8     C25     1.417   .     D
C9     C10     1.446   .     S
C9     C45     1.447   1_545 S
C10    C11     1.453   .     D
C10    C13     1.446   .     S
C11    C12     1.455   .     S
C11    C16     1.455   .     S
C12    N55     1.386   .     S
C13    C14     1.432   .     D
C13    C49     1.447   1_545 S
C14    C15     1.437   .     S
C14    C17     1.439   .     S
C15    C16     1.443   .     S
C15    C20     1.429   .     D
C16    N57     1.386   .     D
C17    C18     1.437   .     S
C17    C52     1.426   1_545 D
C18    C1      1.433   1_655 S
C18    C19     1.418   .     D
C19    C4      1.428   1_655 S
C19    C20     1.429   .     S
C20    C31     1.417   .     S
C21    C22     1.417   .     D
C21    C32     1.417   1_455 S
C22    C23     1.415   .     S
C22    C25     1.426   .     S
C23    C24     1.417   .     D
C23    C28     1.426   .     S
C24    C33     1.417   1_455 S
C24    C35     1.424   .     S
C25    C26     1.405   .     S
C26    C27     1.441   .     S
C26    N55     1.370   .     D
C27    C28     1.405   .     S
C27    N56     1.369   .     D
C28    C38     1.417   .     D
C29    C30     1.441   .     S
C29    C31     1.406   .     D
C29    N57     1.370   .     S
C30    C34     1.405   .     S
C30    N58     1.369   .     D
C31    C32     1.426   .     S
C32    C21     1.417   1_655 S
C32    C33     1.415   .     D
C33    C24     1.417   1_655 S
C33    C34     1.426   .     S
C34    C50     1.417   .     D
C35    C36     1.428   .     S
C35    C51     1.428   1_455 D
C36    C38     1.429   .     S
C36    C53     1.418   .     D
C37    C1      1.417   1_565 S
C37    C53     1.433   .     S
C37    C54     1.433   1_455 D
C38    C39     1.429   .     S
C39    C40     1.436   .     S
C39    C42     1.443   .     D
C40    C41     1.439   .     S
C40    C45     1.432   .     D
C41    C5      1.426   1_565 D
C41    C53     1.437   .     S
C42    C43     1.455   .     S
C42    N56     1.385   .     S
C43    C44     1.452   .     S
C43    C46     1.455   .     D
C44    C45     1.446   .     S
C44    C49     1.446   .     D
C45    C9      1.447   1_565 S
C46    C47     1.443   .     S
C46    N58     1.385   .     S
C47    C48     1.436   .     D
C47    C50     1.429   .     S
C48    C49     1.432   .     S
C48    C52     1.439   .     S
C49    C13     1.447   1_565 S
C50    C51     1.429   .     S
C51    C35     1.428   1_655 D
C51    C54     1.418   .     S
C52    C17     1.426   1_565 D
C52    C54     1.437   .     S
C54    C37     1.433   1_655 D
N55    Fe59    1.912   .     S
N56    Fe59    1.910   .     S
N57    Fe59    1.912   .     S
N58    Fe59    1.911   .     S
Fe59   N60     1.878   .     S
N60    O61     1.257   .     S
N60    O62     1.257   .     D
