data_e+0.6-opt
_audit_creation_date              2024-12-22
_audit_creation_method            'Materials Studio'
_symmetry_space_group_name_H-M    'P1'
_symmetry_Int_Tables_number       1
_symmetry_cell_setting            triclinic
loop_
_symmetry_equiv_pos_as_xyz
  x,y,z
_cell_length_a                    12.4761
_cell_length_b                    12.7391
_cell_length_c                    19.9920
_cell_angle_alpha                 90.0000
_cell_angle_beta                  90.0000
_cell_angle_gamma                 90.0000
loop_
_atom_site_label
_atom_site_type_symbol
_atom_site_fract_x
_atom_site_fract_y
_atom_site_fract_z
_atom_site_U_iso_or_equiv
_atom_site_adp_type
_atom_site_occupancy
C1     C     0.05208   0.04519   0.15398   1.00000  Uiso   1.00
C2     C     0.15243   0.09999   0.15403   1.00000  Uiso   1.00
C3     C     0.15181   0.21130   0.15375   1.00000  Uiso   1.00
C4     C     0.05208   0.26639   0.15344   1.00000  Uiso   1.00
C5     C     0.25325   0.04552   0.15423   1.00000  Uiso   1.00
C6     C     0.35339   0.10168   0.15469   1.00000  Uiso   1.00
C7     C     0.35233   0.21442   0.15456   1.00000  Uiso   1.00
C8     C     0.25114   0.26707   0.15383   1.00000  Uiso   1.00
C9     C     0.45333   0.04634   0.15522   1.00000  Uiso   1.00
C10    C     0.55208   0.10562   0.15581   1.00000  Uiso   1.00
C11    C     0.55207   0.21976   0.15642   1.00000  Uiso   1.00
C12    C     0.45008   0.27503   0.15573   1.00000  Uiso   1.00
C13    C     0.65083   0.04634   0.15538   1.00000  Uiso   1.00
C14    C     0.75077   0.10168   0.15497   1.00000  Uiso   1.00
C15    C     0.75182   0.21443   0.15498   1.00000  Uiso   1.00
C16    C     0.65407   0.27503   0.15611   1.00000  Uiso   1.00
C17    C     0.85092   0.04552   0.15445   1.00000  Uiso   1.00
C18    C     0.95174   0.09999   0.15419   1.00000  Uiso   1.00
C19    C     0.95234   0.21131   0.15398   1.00000  Uiso   1.00
C20    C     0.85302   0.26707   0.15429   1.00000  Uiso   1.00
C21    C     0.05208   0.37807   0.15272   1.00000  Uiso   1.00
C22    C     0.15032   0.43403   0.15246   1.00000  Uiso   1.00
C23    C     0.15031   0.54510   0.15213   1.00000  Uiso   1.00
C24    C     0.05208   0.60106   0.15208   1.00000  Uiso   1.00
C25    C     0.24940   0.37833   0.15325   1.00000  Uiso   1.00
C26    C     0.34714   0.43320   0.15426   1.00000  Uiso   1.00
C27    C     0.34714   0.54597   0.15374   1.00000  Uiso   1.00
C28    C     0.24938   0.60081   0.15252   1.00000  Uiso   1.00
C29    C     0.75701   0.43322   0.15503   1.00000  Uiso   1.00
C30    C     0.75701   0.54598   0.15444   1.00000  Uiso   1.00
C31    C     0.85476   0.37834   0.15387   1.00000  Uiso   1.00
C32    C     0.95383   0.43403   0.15283   1.00000  Uiso   1.00
C33    C     0.95383   0.54510   0.15248   1.00000  Uiso   1.00
C34    C     0.85477   0.60081   0.15307   1.00000  Uiso   1.00
C35    C     0.05208   0.71274   0.15243   1.00000  Uiso   1.00
C36    C     0.15181   0.76783   0.15275   1.00000  Uiso   1.00
C37    C     0.05208   0.93393   0.15364   1.00000  Uiso   1.00
C38    C     0.25113   0.71207   0.15276   1.00000  Uiso   1.00
C39    C     0.35231   0.76474   0.15348   1.00000  Uiso   1.00
C40    C     0.35339   0.87747   0.15403   1.00000  Uiso   1.00
C41    C     0.25324   0.93361   0.15389   1.00000  Uiso   1.00
C42    C     0.45006   0.70415   0.15449   1.00000  Uiso   1.00
C43    C     0.55208   0.75940   0.15520   1.00000  Uiso   1.00
C44    C     0.55208   0.87352   0.15509   1.00000  Uiso   1.00
C45    C     0.45332   0.93279   0.15487   1.00000  Uiso   1.00
C46    C     0.65409   0.70415   0.15479   1.00000  Uiso   1.00
C47    C     0.75184   0.76474   0.15381   1.00000  Uiso   1.00
C48    C     0.75077   0.87747   0.15427   1.00000  Uiso   1.00
C49    C     0.65083   0.93279   0.15501   1.00000  Uiso   1.00
C50    C     0.85302   0.71208   0.15314   1.00000  Uiso   1.00
C51    C     0.95235   0.76783   0.15293   1.00000  Uiso   1.00
C52    C     0.85092   0.93362   0.15410   1.00000  Uiso   1.00
C53    C     0.15242   0.87914   0.15339   1.00000  Uiso   1.00
C54    C     0.95174   0.87915   0.15352   1.00000  Uiso   1.00
N55    N     0.44483   0.38372   0.15625   1.00000  Uiso   1.00
N56    N     0.44478   0.59551   0.15510   1.00000  Uiso   1.00
N57    N     0.65931   0.38373   0.15687   1.00000  Uiso   1.00
N58    N     0.65935   0.59552   0.15561   1.00000  Uiso   1.00
Fe59   Fe    0.55199   0.48985   0.16502   1.00000  Uiso   1.00
N60    N     0.55088   0.49353   0.25874   1.00000  Uiso   1.00
O61    O     0.63896   0.49612   0.28946   1.00000  Uiso   1.00
O62    O     0.46211   0.49385   0.28874   1.00000  Uiso   1.00
loop_
_geom_bond_atom_site_label_1
_geom_bond_atom_site_label_2
_geom_bond_distance
_geom_bond_site_symmetry_2
_ccdc_geom_bond_type
C1     C2      1.433   .     D
C1     C18     1.433   1_455 S
C1     C37     1.417   1_545 S
C2     C3      1.418   .     S
C2     C5      1.437   .     S
C3     C4      1.429   .     D
C3     C8      1.428   .     S
C4     C19     1.429   1_455 S
C4     C21     1.423   .     S
C5     C6      1.440   .     S
C5     C41     1.426   1_545 D
C6     C7      1.436   .     S
C6     C9      1.432   .     D
C7     C8      1.430   .     S
C7     C12     1.444   .     D
C8     C25     1.418   .     D
C9     C10     1.445   .     S
C9     C45     1.447   1_545 S
C10    C11     1.454   .     D
C10    C13     1.445   .     S
C11    C12     1.454   .     S
C11    C16     1.454   .     S
C12    N55     1.386   .     S
C13    C14     1.432   .     D
C13    C49     1.447   1_545 S
C14    C15     1.436   .     S
C14    C17     1.440   .     S
C15    C16     1.444   .     S
C15    C20     1.430   .     D
C16    N57     1.386   .     D
C17    C18     1.437   .     S
C17    C52     1.426   1_545 D
C18    C1      1.433   1_655 S
C18    C19     1.418   .     D
C19    C4      1.429   1_655 S
C19    C20     1.428   .     S
C20    C31     1.418   .     S
C21    C22     1.418   .     D
C21    C32     1.418   1_455 S
C22    C23     1.415   .     S
C22    C25     1.425   .     S
C23    C24     1.418   .     D
C23    C28     1.425   .     S
C24    C33     1.418   1_455 S
C24    C35     1.423   .     S
C25    C26     1.406   .     S
C26    C27     1.437   .     S
C26    N55     1.373   .     D
C27    C28     1.406   .     S
C27    N56     1.372   .     D
C28    C38     1.418   .     D
C29    C30     1.437   .     S
C29    C31     1.406   .     D
C29    N57     1.373   .     S
C30    C34     1.406   .     S
C30    N58     1.372   .     D
C31    C32     1.425   .     S
C32    C21     1.418   1_655 S
C32    C33     1.415   .     D
C33    C24     1.418   1_655 S
C33    C34     1.425   .     S
C34    C50     1.418   .     D
C35    C36     1.428   .     S
C35    C51     1.428   1_455 D
C36    C38     1.428   .     S
C36    C53     1.418   .     D
C37    C1      1.417   1_565 S
C37    C53     1.433   .     S
C37    C54     1.433   1_455 D
C38    C39     1.430   .     S
C39    C40     1.436   .     S
C39    C42     1.443   .     D
C40    C41     1.440   .     S
C40    C45     1.432   .     D
C41    C5      1.426   1_565 D
C41    C53     1.437   .     S
C42    C43     1.454   .     S
C42    N56     1.386   .     S
C43    C44     1.454   .     S
C43    C46     1.454   .     D
C44    C45     1.445   .     S
C44    C49     1.445   .     D
C45    C9      1.447   1_565 S
C46    C47     1.443   .     S
C46    N58     1.385   .     S
C47    C48     1.436   .     D
C47    C50     1.430   .     S
C48    C49     1.432   .     S
C48    C52     1.440   .     S
C49    C13     1.447   1_565 S
C50    C51     1.428   .     S
C51    C35     1.428   1_655 D
C51    C54     1.418   .     S
C52    C17     1.426   1_565 D
C52    C54     1.437   .     S
C54    C37     1.433   1_655 D
N55    Fe59    1.909   .     S
N56    Fe59    1.908   .     S
N57    Fe59    1.910   .     S
N58    Fe59    1.908   .     S
Fe59   N60     1.874   .     S
N60    O61     1.259   .     S
N60    O62     1.259   .     D
