data_e+0.4-opt
_audit_creation_date              2024-12-22
_audit_creation_method            'Materials Studio'
_symmetry_space_group_name_H-M    'P1'
_symmetry_Int_Tables_number       1
_symmetry_cell_setting            triclinic
loop_
_symmetry_equiv_pos_as_xyz
  x,y,z
_cell_length_a                    12.4761
_cell_length_b                    12.7391
_cell_length_c                    19.9920
_cell_angle_alpha                 90.0000
_cell_angle_beta                  90.0000
_cell_angle_gamma                 90.0000
loop_
_atom_site_label
_atom_site_type_symbol
_atom_site_fract_x
_atom_site_fract_y
_atom_site_fract_z
_atom_site_U_iso_or_equiv
_atom_site_adp_type
_atom_site_occupancy
C1     C     0.05208   0.04517   0.15399   1.00000  Uiso   1.00
C2     C     0.15242   0.09999   0.15404   1.00000  Uiso   1.00
C3     C     0.15185   0.21131   0.15375   1.00000  Uiso   1.00
C4     C     0.05208   0.26638   0.15344   1.00000  Uiso   1.00
C5     C     0.25326   0.04553   0.15423   1.00000  Uiso   1.00
C6     C     0.35339   0.10167   0.15470   1.00000  Uiso   1.00
C7     C     0.35235   0.21442   0.15457   1.00000  Uiso   1.00
C8     C     0.25111   0.26706   0.15384   1.00000  Uiso   1.00
C9     C     0.45334   0.04637   0.15523   1.00000  Uiso   1.00
C10    C     0.55208   0.10560   0.15582   1.00000  Uiso   1.00
C11    C     0.55207   0.21974   0.15642   1.00000  Uiso   1.00
C12    C     0.45009   0.27503   0.15574   1.00000  Uiso   1.00
C13    C     0.65082   0.04637   0.15538   1.00000  Uiso   1.00
C14    C     0.75077   0.10167   0.15498   1.00000  Uiso   1.00
C15    C     0.75181   0.21442   0.15499   1.00000  Uiso   1.00
C16    C     0.65407   0.27503   0.15613   1.00000  Uiso   1.00
C17    C     0.85090   0.04553   0.15446   1.00000  Uiso   1.00
C18    C     0.95174   0.09999   0.15419   1.00000  Uiso   1.00
C19    C     0.95232   0.21132   0.15398   1.00000  Uiso   1.00
C20    C     0.85305   0.26707   0.15431   1.00000  Uiso   1.00
C21    C     0.05208   0.37808   0.15272   1.00000  Uiso   1.00
C22    C     0.15031   0.43401   0.15247   1.00000  Uiso   1.00
C23    C     0.15030   0.54511   0.15214   1.00000  Uiso   1.00
C24    C     0.05207   0.60105   0.15208   1.00000  Uiso   1.00
C25    C     0.24940   0.37833   0.15328   1.00000  Uiso   1.00
C26    C     0.34714   0.43322   0.15430   1.00000  Uiso   1.00
C27    C     0.34712   0.54595   0.15378   1.00000  Uiso   1.00
C28    C     0.24939   0.60081   0.15255   1.00000  Uiso   1.00
C29    C     0.75701   0.43324   0.15507   1.00000  Uiso   1.00
C30    C     0.75702   0.54596   0.15449   1.00000  Uiso   1.00
C31    C     0.85476   0.37834   0.15389   1.00000  Uiso   1.00
C32    C     0.95384   0.43402   0.15284   1.00000  Uiso   1.00
C33    C     0.95385   0.54511   0.15249   1.00000  Uiso   1.00
C34    C     0.85476   0.60081   0.15310   1.00000  Uiso   1.00
C35    C     0.05208   0.71274   0.15243   1.00000  Uiso   1.00
C36    C     0.15184   0.76782   0.15275   1.00000  Uiso   1.00
C37    C     0.05208   0.93395   0.15365   1.00000  Uiso   1.00
C38    C     0.25110   0.71207   0.15277   1.00000  Uiso   1.00
C39    C     0.35233   0.76474   0.15349   1.00000  Uiso   1.00
C40    C     0.35338   0.87748   0.15404   1.00000  Uiso   1.00
C41    C     0.25326   0.93361   0.15390   1.00000  Uiso   1.00
C42    C     0.45007   0.70415   0.15450   1.00000  Uiso   1.00
C43    C     0.55208   0.75942   0.15519   1.00000  Uiso   1.00
C44    C     0.55208   0.87354   0.15510   1.00000  Uiso   1.00
C45    C     0.45333   0.93277   0.15487   1.00000  Uiso   1.00
C46    C     0.65409   0.70415   0.15480   1.00000  Uiso   1.00
C47    C     0.75183   0.76474   0.15383   1.00000  Uiso   1.00
C48    C     0.75078   0.87748   0.15428   1.00000  Uiso   1.00
C49    C     0.65083   0.93277   0.15502   1.00000  Uiso   1.00
C50    C     0.85306   0.71208   0.15316   1.00000  Uiso   1.00
C51    C     0.95232   0.76782   0.15294   1.00000  Uiso   1.00
C52    C     0.85090   0.93361   0.15410   1.00000  Uiso   1.00
C53    C     0.15242   0.87914   0.15340   1.00000  Uiso   1.00
C54    C     0.95174   0.87914   0.15353   1.00000  Uiso   1.00
N55    N     0.44489   0.38374   0.15622   1.00000  Uiso   1.00
N56    N     0.44485   0.59550   0.15507   1.00000  Uiso   1.00
N57    N     0.65925   0.38375   0.15684   1.00000  Uiso   1.00
N58    N     0.65929   0.59551   0.15558   1.00000  Uiso   1.00
Fe59   Fe    0.55199   0.48983   0.16486   1.00000  Uiso   1.00
N60    N     0.55087   0.49357   0.25889   1.00000  Uiso   1.00
O61    O     0.63901   0.49615   0.28921   1.00000  Uiso   1.00
O62    O     0.46205   0.49387   0.28848   1.00000  Uiso   1.00
loop_
_geom_bond_atom_site_label_1
_geom_bond_atom_site_label_2
_geom_bond_distance
_geom_bond_site_symmetry_2
_ccdc_geom_bond_type
C1     C2      1.433   .     D
C1     C18     1.433   1_455 S
C1     C37     1.417   1_545 S
C2     C3      1.418   .     S
C2     C5      1.437   .     S
C3     C4      1.429   .     D
C3     C8      1.428   .     S
C4     C19     1.429   1_455 S
C4     C21     1.423   .     S
C5     C6      1.439   .     S
C5     C41     1.426   1_545 D
C6     C7      1.436   .     S
C6     C9      1.432   .     D
C7     C8      1.430   .     S
C7     C12     1.444   .     D
C8     C25     1.418   .     D
C9     C10     1.445   .     S
C9     C45     1.447   1_545 S
C10    C11     1.454   .     D
C10    C13     1.445   .     S
C11    C12     1.454   .     S
C11    C16     1.454   .     S
C12    N55     1.386   .     S
C13    C14     1.432   .     D
C13    C49     1.447   1_545 S
C14    C15     1.436   .     S
C14    C17     1.439   .     S
C15    C16     1.444   .     S
C15    C20     1.430   .     D
C16    N57     1.387   .     D
C17    C18     1.437   .     S
C17    C52     1.426   1_545 D
C18    C1      1.433   1_655 S
C18    C19     1.418   .     D
C19    C4      1.429   1_655 S
C19    C20     1.428   .     S
C20    C31     1.418   .     S
C21    C22     1.418   .     D
C21    C32     1.418   1_455 S
C22    C23     1.415   .     S
C22    C25     1.425   .     S
C23    C24     1.418   .     D
C23    C28     1.425   .     S
C24    C33     1.418   1_455 S
C24    C35     1.423   .     S
C25    C26     1.406   .     S
C26    C27     1.436   .     S
C26    N55     1.373   .     D
C27    C28     1.406   .     S
C27    N56     1.373   .     D
C28    C38     1.418   .     D
C29    C30     1.436   .     S
C29    C31     1.406   .     D
C29    N57     1.373   .     S
C30    C34     1.406   .     S
C30    N58     1.373   .     D
C31    C32     1.425   .     S
C32    C21     1.418   1_655 S
C32    C33     1.415   .     D
C33    C24     1.418   1_655 S
C33    C34     1.426   .     S
C34    C50     1.418   .     D
C35    C36     1.429   .     S
C35    C51     1.429   1_455 D
C36    C38     1.428   .     S
C36    C53     1.418   .     D
C37    C1      1.417   1_565 S
C37    C53     1.433   .     S
C37    C54     1.433   1_455 D
C38    C39     1.430   .     S
C39    C40     1.436   .     S
C39    C42     1.443   .     D
C40    C41     1.439   .     S
C40    C45     1.432   .     D
C41    C5      1.426   1_565 D
C41    C53     1.437   .     S
C42    C43     1.454   .     S
C42    N56     1.386   .     S
C43    C44     1.454   .     S
C43    C46     1.454   .     D
C44    C45     1.445   .     S
C44    C49     1.445   .     D
C45    C9      1.447   1_565 S
C46    C47     1.443   .     S
C46    N58     1.386   .     S
C47    C48     1.436   .     D
C47    C50     1.430   .     S
C48    C49     1.432   .     S
C48    C52     1.439   .     S
C49    C13     1.447   1_565 S
C50    C51     1.428   .     S
C51    C35     1.429   1_655 D
C51    C54     1.418   .     S
C52    C17     1.426   1_565 D
C52    C54     1.437   .     S
C54    C37     1.433   1_655 D
N55    Fe59    1.908   .     S
N56    Fe59    1.907   .     S
N57    Fe59    1.909   .     S
N58    Fe59    1.908   .     S
Fe59   N60     1.881   .     S
N60    O61     1.256   .     S
N60    O62     1.256   .     D
