data_e+0.2-opt
_audit_creation_date              2024-12-22
_audit_creation_method            'Materials Studio'
_symmetry_space_group_name_H-M    'P1'
_symmetry_Int_Tables_number       1
_symmetry_cell_setting            triclinic
loop_
_symmetry_equiv_pos_as_xyz
  x,y,z
_cell_length_a                    12.4761
_cell_length_b                    12.7391
_cell_length_c                    19.9920
_cell_angle_alpha                 90.0000
_cell_angle_beta                  90.0000
_cell_angle_gamma                 90.0000
loop_
_atom_site_label
_atom_site_type_symbol
_atom_site_fract_x
_atom_site_fract_y
_atom_site_fract_z
_atom_site_U_iso_or_equiv
_atom_site_adp_type
_atom_site_occupancy
C1     C     0.05208   0.04520   0.15399   1.00000  Uiso   1.00
C2     C     0.15244   0.09997   0.15404   1.00000  Uiso   1.00
C3     C     0.15183   0.21132   0.15375   1.00000  Uiso   1.00
C4     C     0.05208   0.26640   0.15344   1.00000  Uiso   1.00
C5     C     0.25324   0.04554   0.15424   1.00000  Uiso   1.00
C6     C     0.35340   0.10171   0.15471   1.00000  Uiso   1.00
C7     C     0.35233   0.21440   0.15459   1.00000  Uiso   1.00
C8     C     0.25114   0.26705   0.15385   1.00000  Uiso   1.00
C9     C     0.45334   0.04634   0.15523   1.00000  Uiso   1.00
C10    C     0.55208   0.10561   0.15582   1.00000  Uiso   1.00
C11    C     0.55207   0.21975   0.15641   1.00000  Uiso   1.00
C12    C     0.45010   0.27499   0.15575   1.00000  Uiso   1.00
C13    C     0.65082   0.04634   0.15539   1.00000  Uiso   1.00
C14    C     0.75076   0.10171   0.15498   1.00000  Uiso   1.00
C15    C     0.75182   0.21441   0.15501   1.00000  Uiso   1.00
C16    C     0.65405   0.27499   0.15613   1.00000  Uiso   1.00
C17    C     0.85092   0.04554   0.15446   1.00000  Uiso   1.00
C18    C     0.95172   0.09997   0.15420   1.00000  Uiso   1.00
C19    C     0.95233   0.21132   0.15398   1.00000  Uiso   1.00
C20    C     0.85302   0.26706   0.15432   1.00000  Uiso   1.00
C21    C     0.05208   0.37804   0.15273   1.00000  Uiso   1.00
C22    C     0.15033   0.43402   0.15248   1.00000  Uiso   1.00
C23    C     0.15033   0.54510   0.15214   1.00000  Uiso   1.00
C24    C     0.05208   0.60108   0.15208   1.00000  Uiso   1.00
C25    C     0.24939   0.37835   0.15330   1.00000  Uiso   1.00
C26    C     0.34709   0.43325   0.15433   1.00000  Uiso   1.00
C27    C     0.34709   0.54592   0.15381   1.00000  Uiso   1.00
C28    C     0.24937   0.60078   0.15257   1.00000  Uiso   1.00
C29    C     0.75706   0.43326   0.15510   1.00000  Uiso   1.00
C30    C     0.75706   0.54593   0.15452   1.00000  Uiso   1.00
C31    C     0.85476   0.37836   0.15391   1.00000  Uiso   1.00
C32    C     0.95382   0.43402   0.15285   1.00000  Uiso   1.00
C33    C     0.95382   0.54510   0.15250   1.00000  Uiso   1.00
C34    C     0.85478   0.60078   0.15312   1.00000  Uiso   1.00
C35    C     0.05208   0.71273   0.15243   1.00000  Uiso   1.00
C36    C     0.15182   0.76781   0.15275   1.00000  Uiso   1.00
C37    C     0.05208   0.93392   0.15365   1.00000  Uiso   1.00
C38    C     0.25114   0.71208   0.15278   1.00000  Uiso   1.00
C39    C     0.35231   0.76475   0.15351   1.00000  Uiso   1.00
C40    C     0.35340   0.87744   0.15405   1.00000  Uiso   1.00
C41    C     0.25324   0.93359   0.15390   1.00000  Uiso   1.00
C42    C     0.45008   0.70419   0.15450   1.00000  Uiso   1.00
C43    C     0.55208   0.75941   0.15518   1.00000  Uiso   1.00
C44    C     0.55208   0.87352   0.15510   1.00000  Uiso   1.00
C45    C     0.45334   0.93280   0.15487   1.00000  Uiso   1.00
C46    C     0.65407   0.70419   0.15480   1.00000  Uiso   1.00
C47    C     0.75185   0.76475   0.15384   1.00000  Uiso   1.00
C48    C     0.75077   0.87744   0.15429   1.00000  Uiso   1.00
C49    C     0.65082   0.93280   0.15502   1.00000  Uiso   1.00
C50    C     0.85302   0.71209   0.15317   1.00000  Uiso   1.00
C51    C     0.95233   0.76781   0.15294   1.00000  Uiso   1.00
C52    C     0.85092   0.93360   0.15411   1.00000  Uiso   1.00
C53    C     0.15244   0.87916   0.15340   1.00000  Uiso   1.00
C54    C     0.95172   0.87916   0.15353   1.00000  Uiso   1.00
N55    N     0.44497   0.38377   0.15619   1.00000  Uiso   1.00
N56    N     0.44493   0.59545   0.15504   1.00000  Uiso   1.00
N57    N     0.65917   0.38378   0.15682   1.00000  Uiso   1.00
N58    N     0.65921   0.59547   0.15555   1.00000  Uiso   1.00
Fe59   Fe    0.55199   0.48983   0.16474   1.00000  Uiso   1.00
N60    N     0.55085   0.49360   0.25910   1.00000  Uiso   1.00
O61    O     0.63907   0.49617   0.28899   1.00000  Uiso   1.00
O62    O     0.46199   0.49388   0.28827   1.00000  Uiso   1.00
loop_
_geom_bond_atom_site_label_1
_geom_bond_atom_site_label_2
_geom_bond_distance
_geom_bond_site_symmetry_2
_ccdc_geom_bond_type
C1     C2      1.433   .     D
C1     C18     1.433   1_455 S
C1     C37     1.418   1_545 S
C2     C3      1.418   .     S
C2     C5      1.436   .     S
C3     C4      1.429   .     D
C3     C8      1.428   .     S
C4     C19     1.429   1_455 S
C4     C21     1.422   .     S
C5     C6      1.440   .     S
C5     C41     1.426   1_545 D
C6     C7      1.436   .     S
C6     C9      1.433   .     D
C7     C8      1.430   .     S
C7     C12     1.444   .     D
C8     C25     1.418   .     D
C9     C10     1.445   .     S
C9     C45     1.446   1_545 S
C10    C11     1.454   .     D
C10    C13     1.445   .     S
C11    C12     1.454   .     S
C11    C16     1.454   .     S
C12    N55     1.387   .     S
C13    C14     1.433   .     D
C13    C49     1.446   1_545 S
C14    C15     1.436   .     S
C14    C17     1.440   .     S
C15    C16     1.444   .     S
C15    C20     1.430   .     D
C16    N57     1.387   .     D
C17    C18     1.436   .     S
C17    C52     1.426   1_545 D
C18    C1      1.433   1_655 S
C18    C19     1.419   .     D
C19    C4      1.429   1_655 S
C19    C20     1.428   .     S
C20    C31     1.418   .     S
C21    C22     1.418   .     D
C21    C32     1.418   1_455 S
C22    C23     1.415   .     S
C22    C25     1.425   .     S
C23    C24     1.418   .     D
C23    C28     1.425   .     S
C24    C33     1.418   1_455 S
C24    C35     1.422   .     S
C25    C26     1.405   .     S
C26    C27     1.435   .     S
C26    N55     1.375   .     D
C27    C28     1.405   .     S
C27    N56     1.374   .     D
C28    C38     1.418   .     D
C29    C30     1.435   .     S
C29    C31     1.405   .     D
C29    N57     1.375   .     S
C30    C34     1.405   .     S
C30    N58     1.374   .     D
C31    C32     1.425   .     S
C32    C21     1.418   1_655 S
C32    C33     1.415   .     D
C33    C24     1.418   1_655 S
C33    C34     1.425   .     S
C34    C50     1.418   .     D
C35    C36     1.429   .     S
C35    C51     1.429   1_455 D
C36    C38     1.428   .     S
C36    C53     1.419   .     D
C37    C1      1.418   1_565 S
C37    C53     1.433   .     S
C37    C54     1.433   1_455 D
C38    C39     1.430   .     S
C39    C40     1.436   .     S
C39    C42     1.443   .     D
C40    C41     1.440   .     S
C40    C45     1.433   .     D
C41    C5      1.426   1_565 D
C41    C53     1.436   .     S
C42    C43     1.454   .     S
C42    N56     1.387   .     S
C43    C44     1.454   .     S
C43    C46     1.454   .     D
C44    C45     1.445   .     S
C44    C49     1.445   .     D
C45    C9      1.446   1_565 S
C46    C47     1.443   .     S
C46    N58     1.387   .     S
C47    C48     1.436   .     D
C47    C50     1.430   .     S
C48    C49     1.433   .     S
C48    C52     1.440   .     S
C49    C13     1.446   1_565 S
C50    C51     1.428   .     S
C51    C35     1.429   1_655 D
C51    C54     1.419   .     S
C52    C17     1.426   1_565 D
C52    C54     1.436   .     S
C54    C37     1.433   1_655 D
N55    Fe59    1.907   .     S
N56    Fe59    1.906   .     S
N57    Fe59    1.907   .     S
N58    Fe59    1.906   .     S
Fe59   N60     1.887   .     S
N60    O61     1.253   .     S
N60    O62     1.253   .     D
