data_e+1.0-opt
_audit_creation_date              2024-12-22
_audit_creation_method            'Materials Studio'
_symmetry_space_group_name_H-M    'P1'
_symmetry_Int_Tables_number       1
_symmetry_cell_setting            triclinic
loop_
_symmetry_equiv_pos_as_xyz
  x,y,z
_cell_length_a                    12.4761
_cell_length_b                    12.7391
_cell_length_c                    19.9920
_cell_angle_alpha                 90.0000
_cell_angle_beta                  90.0000
_cell_angle_gamma                 90.0000
loop_
_atom_site_label
_atom_site_type_symbol
_atom_site_fract_x
_atom_site_fract_y
_atom_site_fract_z
_atom_site_U_iso_or_equiv
_atom_site_adp_type
_atom_site_occupancy
C1     C     0.05208   0.04521   0.15399   1.00000  Uiso   1.00
C2     C     0.15232   0.09995   0.15404   1.00000  Uiso   1.00
C3     C     0.15170   0.21121   0.15376   1.00000  Uiso   1.00
C4     C     0.05208   0.26630   0.15344   1.00000  Uiso   1.00
C5     C     0.25319   0.04550   0.15422   1.00000  Uiso   1.00
C6     C     0.35329   0.10155   0.15469   1.00000  Uiso   1.00
C7     C     0.35217   0.21437   0.15455   1.00000  Uiso   1.00
C8     C     0.25115   0.26700   0.15381   1.00000  Uiso   1.00
C9     C     0.45320   0.04637   0.15523   1.00000  Uiso   1.00
C10    C     0.55208   0.10575   0.15580   1.00000  Uiso   1.00
C11    C     0.55207   0.21972   0.15643   1.00000  Uiso   1.00
C12    C     0.44994   0.27488   0.15576   1.00000  Uiso   1.00
C13    C     0.65096   0.04637   0.15539   1.00000  Uiso   1.00
C14    C     0.75087   0.10156   0.15496   1.00000  Uiso   1.00
C15    C     0.75199   0.21437   0.15497   1.00000  Uiso   1.00
C16    C     0.65421   0.27488   0.15614   1.00000  Uiso   1.00
C17    C     0.85097   0.04550   0.15445   1.00000  Uiso   1.00
C18    C     0.95184   0.09996   0.15419   1.00000  Uiso   1.00
C19    C     0.95246   0.21121   0.15398   1.00000  Uiso   1.00
C20    C     0.85301   0.26701   0.15427   1.00000  Uiso   1.00
C21    C     0.05208   0.37822   0.15273   1.00000  Uiso   1.00
C22    C     0.15029   0.43402   0.15245   1.00000  Uiso   1.00
C23    C     0.15029   0.54511   0.15212   1.00000  Uiso   1.00
C24    C     0.05207   0.60091   0.15208   1.00000  Uiso   1.00
C25    C     0.24935   0.37825   0.15322   1.00000  Uiso   1.00
C26    C     0.34719   0.43289   0.15431   1.00000  Uiso   1.00
C27    C     0.34718   0.54628   0.15379   1.00000  Uiso   1.00
C28    C     0.24934   0.60090   0.15249   1.00000  Uiso   1.00
C29    C     0.75696   0.43291   0.15507   1.00000  Uiso   1.00
C30    C     0.75697   0.54630   0.15449   1.00000  Uiso   1.00
C31    C     0.85480   0.37826   0.15383   1.00000  Uiso   1.00
C32    C     0.95386   0.43402   0.15282   1.00000  Uiso   1.00
C33    C     0.95386   0.54512   0.15246   1.00000  Uiso   1.00
C34    C     0.85481   0.60090   0.15304   1.00000  Uiso   1.00
C35    C     0.05208   0.71284   0.15244   1.00000  Uiso   1.00
C36    C     0.15170   0.76793   0.15276   1.00000  Uiso   1.00
C37    C     0.05208   0.93392   0.15365   1.00000  Uiso   1.00
C38    C     0.25114   0.71214   0.15275   1.00000  Uiso   1.00
C39    C     0.35215   0.76479   0.15348   1.00000  Uiso   1.00
C40    C     0.35328   0.87759   0.15403   1.00000  Uiso   1.00
C41    C     0.25318   0.93364   0.15389   1.00000  Uiso   1.00
C42    C     0.44992   0.70431   0.15451   1.00000  Uiso   1.00
C43    C     0.55208   0.75945   0.15521   1.00000  Uiso   1.00
C44    C     0.55208   0.87340   0.15509   1.00000  Uiso   1.00
C45    C     0.45320   0.93277   0.15488   1.00000  Uiso   1.00
C46    C     0.65423   0.70431   0.15481   1.00000  Uiso   1.00
C47    C     0.75200   0.76480   0.15381   1.00000  Uiso   1.00
C48    C     0.75088   0.87760   0.15427   1.00000  Uiso   1.00
C49    C     0.65096   0.93277   0.15502   1.00000  Uiso   1.00
C50    C     0.85301   0.71214   0.15313   1.00000  Uiso   1.00
C51    C     0.95246   0.76793   0.15294   1.00000  Uiso   1.00
C52    C     0.85098   0.93364   0.15409   1.00000  Uiso   1.00
C53    C     0.15232   0.87918   0.15340   1.00000  Uiso   1.00
C54    C     0.95184   0.87918   0.15353   1.00000  Uiso   1.00
N55    N     0.44440   0.38350   0.15648   1.00000  Uiso   1.00
N56    N     0.44436   0.59575   0.15534   1.00000  Uiso   1.00
N57    N     0.65973   0.38350   0.15709   1.00000  Uiso   1.00
N58    N     0.65977   0.59576   0.15586   1.00000  Uiso   1.00
Fe59   Fe    0.55199   0.48986   0.16466   1.00000  Uiso   1.00
N60    N     0.55088   0.49350   0.25865   1.00000  Uiso   1.00
O61    O     0.63894   0.49605   0.28912   1.00000  Uiso   1.00
O62    O     0.46217   0.49379   0.28840   1.00000  Uiso   1.00
loop_
_geom_bond_atom_site_label_1
_geom_bond_atom_site_label_2
_geom_bond_distance
_geom_bond_site_symmetry_2
_ccdc_geom_bond_type
C1     C2      1.432   .     D
C1     C18     1.432   1_455 S
C1     C37     1.418   1_545 S
C2     C3      1.417   .     S
C2     C5      1.437   .     S
C3     C4      1.427   .     D
C3     C8      1.430   .     S
C4     C19     1.427   1_455 S
C4     C21     1.426   .     S
C5     C6      1.439   .     S
C5     C41     1.425   1_545 D
C6     C7      1.437   .     S
C6     C9      1.431   .     D
C7     C8      1.428   .     S
C7     C12     1.443   .     D
C8     C25     1.417   .     D
C9     C10     1.447   .     S
C9     C45     1.447   1_545 S
C10    C11     1.452   .     D
C10    C13     1.447   .     S
C11    C12     1.455   .     S
C11    C16     1.455   .     S
C12    N55     1.385   .     S
C13    C14     1.431   .     D
C13    C49     1.447   1_545 S
C14    C15     1.437   .     S
C14    C17     1.439   .     S
C15    C16     1.443   .     S
C15    C20     1.428   .     D
C16    N57     1.386   .     D
C17    C18     1.437   .     S
C17    C52     1.425   1_545 D
C18    C1      1.432   1_655 S
C18    C19     1.417   .     D
C19    C4      1.427   1_655 S
C19    C20     1.430   .     S
C20    C31     1.417   .     S
C21    C22     1.417   .     D
C21    C32     1.417   1_455 S
C22    C23     1.415   .     S
C22    C25     1.426   .     S
C23    C24     1.417   .     D
C23    C28     1.426   .     S
C24    C33     1.417   1_455 S
C24    C35     1.426   .     S
C25    C26     1.405   .     S
C26    C27     1.445   .     S
C26    N55     1.367   .     D
C27    C28     1.405   .     S
C27    N56     1.367   .     D
C28    C38     1.417   .     D
C29    C30     1.445   .     S
C29    C31     1.405   .     D
C29    N57     1.367   .     S
C30    C34     1.405   .     S
C30    N58     1.367   .     D
C31    C32     1.426   .     S
C32    C21     1.417   1_655 S
C32    C33     1.415   .     D
C33    C24     1.417   1_655 S
C33    C34     1.426   .     S
C34    C50     1.417   .     D
C35    C36     1.427   .     S
C35    C51     1.427   1_455 D
C36    C38     1.430   .     S
C36    C53     1.417   .     D
C37    C1      1.418   1_565 S
C37    C53     1.432   .     S
C37    C54     1.432   1_455 D
C38    C39     1.428   .     S
C39    C40     1.437   .     S
C39    C42     1.443   .     D
C40    C41     1.439   .     S
C40    C45     1.431   .     D
C41    C5      1.425   1_565 D
C41    C53     1.437   .     S
C42    C43     1.455   .     S
C42    N56     1.385   .     S
C43    C44     1.452   .     S
C43    C46     1.455   .     D
C44    C45     1.447   .     S
C44    C49     1.447   .     D
C45    C9      1.447   1_565 S
C46    C47     1.443   .     S
C46    N58     1.385   .     S
C47    C48     1.437   .     D
C47    C50     1.428   .     S
C48    C49     1.431   .     S
C48    C52     1.439   .     S
C49    C13     1.447   1_565 S
C50    C51     1.430   .     S
C51    C35     1.427   1_655 D
C51    C54     1.417   .     S
C52    C17     1.425   1_565 D
C52    C54     1.437   .     S
C54    C37     1.432   1_655 D
N55    Fe59    1.914   .     S
N56    Fe59    1.912   .     S
N57    Fe59    1.915   .     S
N58    Fe59    1.913   .     S
Fe59   N60     1.880   .     S
N60    O61     1.257   .     S
N60    O62     1.257   .     D
