data_e-0.8-opt
_audit_creation_date              2024-12-22
_audit_creation_method            'Materials Studio'
_symmetry_space_group_name_H-M    'P1'
_symmetry_Int_Tables_number       1
_symmetry_cell_setting            triclinic
loop_
_symmetry_equiv_pos_as_xyz
  x,y,z
_cell_length_a                    12.4761
_cell_length_b                    12.7391
_cell_length_c                    19.9920
_cell_angle_alpha                 90.0000
_cell_angle_beta                  90.0000
_cell_angle_gamma                 90.0000
loop_
_atom_site_label
_atom_site_type_symbol
_atom_site_fract_x
_atom_site_fract_y
_atom_site_fract_z
_atom_site_U_iso_or_equiv
_atom_site_adp_type
_atom_site_occupancy
C1     C     0.05208   0.04520   0.15399   1.00000  Uiso   1.00
C2     C     0.15240   0.09995   0.15404   1.00000  Uiso   1.00
C3     C     0.15179   0.21128   0.15376   1.00000  Uiso   1.00
C4     C     0.05208   0.26634   0.15346   1.00000  Uiso   1.00
C5     C     0.25321   0.04553   0.15424   1.00000  Uiso   1.00
C6     C     0.35334   0.10162   0.15472   1.00000  Uiso   1.00
C7     C     0.35227   0.21438   0.15462   1.00000  Uiso   1.00
C8     C     0.25111   0.26700   0.15390   1.00000  Uiso   1.00
C9     C     0.45328   0.04635   0.15523   1.00000  Uiso   1.00
C10    C     0.55208   0.10560   0.15580   1.00000  Uiso   1.00
C11    C     0.55207   0.21969   0.15631   1.00000  Uiso   1.00
C12    C     0.45004   0.27489   0.15572   1.00000  Uiso   1.00
C13    C     0.65088   0.04635   0.15538   1.00000  Uiso   1.00
C14    C     0.75082   0.10162   0.15499   1.00000  Uiso   1.00
C15    C     0.75189   0.21438   0.15504   1.00000  Uiso   1.00
C16    C     0.65411   0.27489   0.15611   1.00000  Uiso   1.00
C17    C     0.85095   0.04553   0.15446   1.00000  Uiso   1.00
C18    C     0.95176   0.09995   0.15420   1.00000  Uiso   1.00
C19    C     0.95237   0.21128   0.15399   1.00000  Uiso   1.00
C20    C     0.85305   0.26701   0.15436   1.00000  Uiso   1.00
C21    C     0.05207   0.37811   0.15276   1.00000  Uiso   1.00
C22    C     0.15030   0.43401   0.15253   1.00000  Uiso   1.00
C23    C     0.15030   0.54512   0.15219   1.00000  Uiso   1.00
C24    C     0.05207   0.60103   0.15212   1.00000  Uiso   1.00
C25    C     0.24936   0.37831   0.15340   1.00000  Uiso   1.00
C26    C     0.34708   0.43312   0.15445   1.00000  Uiso   1.00
C27    C     0.34708   0.54605   0.15395   1.00000  Uiso   1.00
C28    C     0.24935   0.60084   0.15267   1.00000  Uiso   1.00
C29    C     0.75707   0.43314   0.15521   1.00000  Uiso   1.00
C30    C     0.75707   0.54606   0.15465   1.00000  Uiso   1.00
C31    C     0.85479   0.37832   0.15401   1.00000  Uiso   1.00
C32    C     0.95385   0.43402   0.15289   1.00000  Uiso   1.00
C33    C     0.95385   0.54512   0.15254   1.00000  Uiso   1.00
C34    C     0.85480   0.60084   0.15322   1.00000  Uiso   1.00
C35    C     0.05208   0.71280   0.15245   1.00000  Uiso   1.00
C36    C     0.15178   0.76786   0.15276   1.00000  Uiso   1.00
C37    C     0.05208   0.93394   0.15365   1.00000  Uiso   1.00
C38    C     0.25110   0.71214   0.15283   1.00000  Uiso   1.00
C39    C     0.35226   0.76478   0.15354   1.00000  Uiso   1.00
C40    C     0.35334   0.87753   0.15407   1.00000  Uiso   1.00
C41    C     0.25321   0.93362   0.15390   1.00000  Uiso   1.00
C42    C     0.45003   0.70430   0.15450   1.00000  Uiso   1.00
C43    C     0.55207   0.75948   0.15510   1.00000  Uiso   1.00
C44    C     0.55208   0.87355   0.15509   1.00000  Uiso   1.00
C45    C     0.45327   0.93280   0.15487   1.00000  Uiso   1.00
C46    C     0.65412   0.70430   0.15479   1.00000  Uiso   1.00
C47    C     0.75190   0.76479   0.15388   1.00000  Uiso   1.00
C48    C     0.75082   0.87754   0.15430   1.00000  Uiso   1.00
C49    C     0.65088   0.93280   0.15502   1.00000  Uiso   1.00
C50    C     0.85305   0.71214   0.15321   1.00000  Uiso   1.00
C51    C     0.95237   0.76786   0.15294   1.00000  Uiso   1.00
C52    C     0.85095   0.93362   0.15411   1.00000  Uiso   1.00
C53    C     0.15240   0.87919   0.15340   1.00000  Uiso   1.00
C54    C     0.95176   0.87919   0.15354   1.00000  Uiso   1.00
N55    N     0.44485   0.38369   0.15609   1.00000  Uiso   1.00
N56    N     0.44483   0.59553   0.15500   1.00000  Uiso   1.00
N57    N     0.65930   0.38369   0.15672   1.00000  Uiso   1.00
N58    N     0.65931   0.59555   0.15549   1.00000  Uiso   1.00
Fe59   Fe    0.55200   0.48981   0.16423   1.00000  Uiso   1.00
N60    N     0.55084   0.49363   0.26033   1.00000  Uiso   1.00
O61    O     0.63941   0.49601   0.28812   1.00000  Uiso   1.00
O62    O     0.46170   0.49375   0.28741   1.00000  Uiso   1.00
loop_
_geom_bond_atom_site_label_1
_geom_bond_atom_site_label_2
_geom_bond_distance
_geom_bond_site_symmetry_2
_ccdc_geom_bond_type
C1     C2      1.433   .     D
C1     C18     1.433   1_455 S
C1     C37     1.417   1_545 S
C2     C3      1.418   .     S
C2     C5      1.436   .     S
C3     C4      1.428   .     D
C3     C8      1.428   .     S
C4     C19     1.428   1_455 S
C4     C21     1.424   .     S
C5     C6      1.439   .     S
C5     C41     1.426   1_545 D
C6     C7      1.437   .     S
C6     C9      1.432   .     D
C7     C8      1.429   .     S
C7     C12     1.443   .     D
C8     C25     1.418   .     D
C9     C10     1.445   .     S
C9     C45     1.447   1_545 S
C10    C11     1.453   .     D
C10    C13     1.445   .     S
C11    C12     1.454   .     S
C11    C16     1.454   .     S
C12    N55     1.388   .     S
C13    C14     1.432   .     D
C13    C49     1.447   1_545 S
C14    C15     1.437   .     S
C14    C17     1.439   .     S
C15    C16     1.443   .     S
C15    C20     1.429   .     D
C16    N57     1.388   .     D
C17    C18     1.436   .     S
C17    C52     1.426   1_545 D
C18    C1      1.433   1_655 S
C18    C19     1.418   .     D
C19    C4      1.428   1_655 S
C19    C20     1.428   .     S
C20    C31     1.418   .     S
C21    C22     1.417   .     D
C21    C32     1.417   1_455 S
C22    C23     1.415   .     S
C22    C25     1.425   .     S
C23    C24     1.417   .     D
C23    C28     1.425   .     S
C24    C33     1.417   1_455 S
C24    C35     1.424   .     S
C25    C26     1.405   .     S
C26    C27     1.439   .     S
C26    N55     1.373   .     D
C27    C28     1.405   .     S
C27    N56     1.373   .     D
C28    C38     1.418   .     D
C29    C30     1.439   .     S
C29    C31     1.405   .     D
C29    N57     1.373   .     S
C30    C34     1.405   .     S
C30    N58     1.373   .     D
C31    C32     1.425   .     S
C32    C21     1.417   1_655 S
C32    C33     1.415   .     D
C33    C24     1.417   1_655 S
C33    C34     1.425   .     S
C34    C50     1.418   .     D
C35    C36     1.428   .     S
C35    C51     1.428   1_455 D
C36    C38     1.428   .     S
C36    C53     1.418   .     D
C37    C1      1.417   1_565 S
C37    C53     1.433   .     S
C37    C54     1.433   1_455 D
C38    C39     1.429   .     S
C39    C40     1.436   .     S
C39    C42     1.443   .     D
C40    C41     1.439   .     S
C40    C45     1.432   .     D
C41    C5      1.426   1_565 D
C41    C53     1.436   .     S
C42    C43     1.454   .     S
C42    N56     1.387   .     S
C43    C44     1.453   .     S
C43    C46     1.454   .     D
C44    C45     1.445   .     S
C44    C49     1.445   .     D
C45    C9      1.447   1_565 S
C46    C47     1.443   .     S
C46    N58     1.387   .     S
C47    C48     1.436   .     D
C47    C50     1.429   .     S
C48    C49     1.432   .     S
C48    C52     1.439   .     S
C49    C13     1.447   1_565 S
C50    C51     1.428   .     S
C51    C35     1.428   1_655 D
C51    C54     1.418   .     S
C52    C17     1.426   1_565 D
C52    C54     1.436   .     S
C54    C37     1.433   1_655 D
N55    Fe59    1.908   .     S
N56    Fe59    1.907   .     S
N57    Fe59    1.908   .     S
N58    Fe59    1.907   .     S
Fe59   N60     1.922   .     S
N60    O61     1.237   .     S
N60    O62     1.237   .     D
