data_e-0.4-opt
_audit_creation_date              2024-12-22
_audit_creation_method            'Materials Studio'
_symmetry_space_group_name_H-M    'P1'
_symmetry_Int_Tables_number       1
_symmetry_cell_setting            triclinic
loop_
_symmetry_equiv_pos_as_xyz
  x,y,z
_cell_length_a                    12.4761
_cell_length_b                    12.7391
_cell_length_c                    19.9920
_cell_angle_alpha                 90.0000
_cell_angle_beta                  90.0000
_cell_angle_gamma                 90.0000
loop_
_atom_site_label
_atom_site_type_symbol
_atom_site_fract_x
_atom_site_fract_y
_atom_site_fract_z
_atom_site_U_iso_or_equiv
_atom_site_adp_type
_atom_site_occupancy
C1     C     0.05208   0.04518   0.15400   1.00000  Uiso   1.00
C2     C     0.15245   0.09997   0.15405   1.00000  Uiso   1.00
C3     C     0.15186   0.21133   0.15376   1.00000  Uiso   1.00
C4     C     0.05208   0.26640   0.15344   1.00000  Uiso   1.00
C5     C     0.25326   0.04555   0.15424   1.00000  Uiso   1.00
C6     C     0.35340   0.10171   0.15472   1.00000  Uiso   1.00
C7     C     0.35236   0.21441   0.15462   1.00000  Uiso   1.00
C8     C     0.25112   0.26705   0.15387   1.00000  Uiso   1.00
C9     C     0.45336   0.04635   0.15523   1.00000  Uiso   1.00
C10    C     0.55208   0.10556   0.15582   1.00000  Uiso   1.00
C11    C     0.55208   0.21973   0.15637   1.00000  Uiso   1.00
C12    C     0.45014   0.27499   0.15576   1.00000  Uiso   1.00
C13    C     0.65080   0.04635   0.15539   1.00000  Uiso   1.00
C14    C     0.75076   0.10171   0.15499   1.00000  Uiso   1.00
C15    C     0.75179   0.21442   0.15503   1.00000  Uiso   1.00
C16    C     0.65402   0.27499   0.15614   1.00000  Uiso   1.00
C17    C     0.85090   0.04555   0.15447   1.00000  Uiso   1.00
C18    C     0.95171   0.09998   0.15420   1.00000  Uiso   1.00
C19    C     0.95230   0.21133   0.15399   1.00000  Uiso   1.00
C20    C     0.85304   0.26706   0.15434   1.00000  Uiso   1.00
C21    C     0.05208   0.37802   0.15274   1.00000  Uiso   1.00
C22    C     0.15033   0.43402   0.15250   1.00000  Uiso   1.00
C23    C     0.15032   0.54511   0.15216   1.00000  Uiso   1.00
C24    C     0.05207   0.60111   0.15210   1.00000  Uiso   1.00
C25    C     0.24940   0.37836   0.15336   1.00000  Uiso   1.00
C26    C     0.34708   0.43330   0.15440   1.00000  Uiso   1.00
C27    C     0.34707   0.54586   0.15389   1.00000  Uiso   1.00
C28    C     0.24938   0.60078   0.15263   1.00000  Uiso   1.00
C29    C     0.75708   0.43331   0.15517   1.00000  Uiso   1.00
C30    C     0.75707   0.54588   0.15460   1.00000  Uiso   1.00
C31    C     0.85476   0.37837   0.15397   1.00000  Uiso   1.00
C32    C     0.95382   0.43402   0.15287   1.00000  Uiso   1.00
C33    C     0.95382   0.54511   0.15252   1.00000  Uiso   1.00
C34    C     0.85477   0.60079   0.15318   1.00000  Uiso   1.00
C35    C     0.05208   0.71273   0.15244   1.00000  Uiso   1.00
C36    C     0.15185   0.76781   0.15276   1.00000  Uiso   1.00
C37    C     0.05208   0.93395   0.15366   1.00000  Uiso   1.00
C38    C     0.25111   0.71209   0.15281   1.00000  Uiso   1.00
C39    C     0.35235   0.76475   0.15354   1.00000  Uiso   1.00
C40    C     0.35340   0.87744   0.15406   1.00000  Uiso   1.00
C41    C     0.25325   0.93359   0.15391   1.00000  Uiso   1.00
C42    C     0.45012   0.70419   0.15452   1.00000  Uiso   1.00
C43    C     0.55208   0.75943   0.15515   1.00000  Uiso   1.00
C44    C     0.55208   0.87359   0.15510   1.00000  Uiso   1.00
C45    C     0.45336   0.93280   0.15488   1.00000  Uiso   1.00
C46    C     0.65403   0.70419   0.15482   1.00000  Uiso   1.00
C47    C     0.75181   0.76475   0.15387   1.00000  Uiso   1.00
C48    C     0.75076   0.87744   0.15430   1.00000  Uiso   1.00
C49    C     0.65080   0.93280   0.15502   1.00000  Uiso   1.00
C50    C     0.85304   0.71209   0.15319   1.00000  Uiso   1.00
C51    C     0.95230   0.76781   0.15294   1.00000  Uiso   1.00
C52    C     0.85091   0.93359   0.15411   1.00000  Uiso   1.00
C53    C     0.15245   0.87916   0.15341   1.00000  Uiso   1.00
C54    C     0.95171   0.87916   0.15354   1.00000  Uiso   1.00
N55    N     0.44508   0.38381   0.15608   1.00000  Uiso   1.00
N56    N     0.44505   0.59541   0.15495   1.00000  Uiso   1.00
N57    N     0.65907   0.38382   0.15671   1.00000  Uiso   1.00
N58    N     0.65910   0.59543   0.15544   1.00000  Uiso   1.00
Fe59   Fe    0.55200   0.48980   0.16452   1.00000  Uiso   1.00
N60    N     0.55087   0.49362   0.25978   1.00000  Uiso   1.00
O61    O     0.63920   0.49611   0.28849   1.00000  Uiso   1.00
O62    O     0.46185   0.49383   0.28778   1.00000  Uiso   1.00
loop_
_geom_bond_atom_site_label_1
_geom_bond_atom_site_label_2
_geom_bond_distance
_geom_bond_site_symmetry_2
_ccdc_geom_bond_type
C1     C2      1.434   .     D
C1     C18     1.434   1_455 S
C1     C37     1.417   1_545 S
C2     C3      1.419   .     S
C2     C5      1.436   .     S
C3     C4      1.429   .     D
C3     C8      1.427   .     S
C4     C19     1.429   1_455 S
C4     C21     1.422   .     S
C5     C6      1.440   .     S
C5     C41     1.426   1_545 D
C6     C7      1.436   .     S
C6     C9      1.433   .     D
C7     C8      1.430   .     S
C7     C12     1.444   .     D
C8     C25     1.418   .     D
C9     C10     1.444   .     S
C9     C45     1.447   1_545 S
C10    C11     1.455   .     D
C10    C13     1.444   .     S
C11    C12     1.454   .     S
C11    C16     1.454   .     S
C12    N55     1.388   .     S
C13    C14     1.433   .     D
C13    C49     1.447   1_545 S
C14    C15     1.436   .     S
C14    C17     1.440   .     S
C15    C16     1.444   .     S
C15    C20     1.430   .     D
C16    N57     1.388   .     D
C17    C18     1.436   .     S
C17    C52     1.426   1_545 D
C18    C1      1.434   1_655 S
C18    C19     1.419   .     D
C19    C4      1.429   1_655 S
C19    C20     1.427   .     S
C20    C31     1.418   .     S
C21    C22     1.418   .     D
C21    C32     1.418   1_455 S
C22    C23     1.415   .     S
C22    C25     1.425   .     S
C23    C24     1.418   .     D
C23    C28     1.425   .     S
C24    C33     1.418   1_455 S
C24    C35     1.422   .     S
C25    C26     1.406   .     S
C26    C27     1.434   .     S
C26    N55     1.376   .     D
C27    C28     1.406   .     S
C27    N56     1.376   .     D
C28    C38     1.418   .     D
C29    C30     1.434   .     S
C29    C31     1.406   .     D
C29    N57     1.376   .     S
C30    C34     1.406   .     S
C30    N58     1.376   .     D
C31    C32     1.425   .     S
C32    C21     1.418   1_655 S
C32    C33     1.415   .     D
C33    C24     1.418   1_655 S
C33    C34     1.425   .     S
C34    C50     1.418   .     D
C35    C36     1.429   .     S
C35    C51     1.429   1_455 D
C36    C38     1.427   .     S
C36    C53     1.419   .     D
C37    C1      1.417   1_565 S
C37    C53     1.434   .     S
C37    C54     1.434   1_455 D
C38    C39     1.430   .     S
C39    C40     1.436   .     S
C39    C42     1.443   .     D
C40    C41     1.440   .     S
C40    C45     1.433   .     D
C41    C5      1.426   1_565 D
C41    C53     1.436   .     S
C42    C43     1.454   .     S
C42    N56     1.387   .     S
C43    C44     1.454   .     S
C43    C46     1.454   .     D
C44    C45     1.444   .     S
C44    C49     1.444   .     D
C45    C9      1.447   1_565 S
C46    C47     1.444   .     S
C46    N58     1.387   .     S
C47    C48     1.436   .     D
C47    C50     1.430   .     S
C48    C49     1.433   .     S
C48    C52     1.440   .     S
C49    C13     1.447   1_565 S
C50    C51     1.427   .     S
C51    C35     1.429   1_655 D
C51    C54     1.419   .     S
C52    C17     1.426   1_565 D
C52    C54     1.436   .     S
C54    C37     1.434   1_655 D
N55    Fe59    1.906   .     S
N56    Fe59    1.904   .     S
N57    Fe59    1.906   .     S
N58    Fe59    1.905   .     S
Fe59   N60     1.905   .     S
N60    O61     1.243   .     S
N60    O62     1.244   .     D
