data_e+1.0-opt
_audit_creation_date              2024-12-22
_audit_creation_method            'Materials Studio'
_symmetry_space_group_name_H-M    'P1'
_symmetry_Int_Tables_number       1
_symmetry_cell_setting            triclinic
loop_
_symmetry_equiv_pos_as_xyz
  x,y,z
_cell_length_a                    8.3946
_cell_length_b                    8.3946
_cell_length_c                    20.0374
_cell_angle_alpha                 90.0000
_cell_angle_beta                  90.0000
_cell_angle_gamma                 90.0000
loop_
_atom_site_label
_atom_site_type_symbol
_atom_site_fract_x
_atom_site_fract_y
_atom_site_fract_z
_atom_site_U_iso_or_equiv
_atom_site_adp_type
_atom_site_occupancy
C001   C     0.50047   0.08430   0.13882   1.00000  Uiso   1.00
C002   C     0.35407   0.16606   0.13877   1.00000  Uiso   1.00
C003   C     0.64685   0.16608   0.13844   1.00000  Uiso   1.00
C004   C     0.79587   0.91499   0.13815   1.00000  Uiso   1.00
C005   C     0.79583   0.08132   0.13813   1.00000  Uiso   1.00
C006   C     0.91721   0.20286   0.13831   1.00000  Uiso   1.00
C007   C     0.83245   0.35154   0.13881   1.00000  Uiso   1.00
C008   C     0.20507   0.08130   0.13840   1.00000  Uiso   1.00
C009   C     0.08370   0.20286   0.13846   1.00000  Uiso   1.00
C010   C     0.16845   0.35155   0.13908   1.00000  Uiso   1.00
C011   C     0.08678   0.49813   0.13932   1.00000  Uiso   1.00
C012   C     0.16838   0.64473   0.13889   1.00000  Uiso   1.00
C013   C     0.35402   0.83016   0.13873   1.00000  Uiso   1.00
C014   C     0.20504   0.91497   0.13836   1.00000  Uiso   1.00
C015   C     0.08370   0.79344   0.13831   1.00000  Uiso   1.00
C016   C     0.64687   0.83019   0.13842   1.00000  Uiso   1.00
C017   C     0.83256   0.64475   0.13858   1.00000  Uiso   1.00
C018   C     0.91722   0.79345   0.13819   1.00000  Uiso   1.00
C019   C     0.50044   0.91194   0.13885   1.00000  Uiso   1.00
C020   C     0.91412   0.49813   0.13916   1.00000  Uiso   1.00
N001   N     0.66812   0.33001   0.13857   1.00000  Uiso   1.00
N002   N     0.33281   0.32999   0.13894   1.00000  Uiso   1.00
N003   N     0.33275   0.66625   0.13874   1.00000  Uiso   1.00
N004   N     0.66822   0.66632   0.13816   1.00000  Uiso   1.00
N005   N     0.50323   0.50621   0.23668   1.00000  Uiso   1.00
Fe001  Fe    0.50071   0.49825   0.14830   1.00000  Uiso   1.00
O001   O     0.49932   0.61907   0.27526   1.00000  Uiso   1.00
O002   O     0.51329   0.35025   0.27028   1.00000  Uiso   1.00
H001   H     0.51630   0.38183   0.31757   1.00000  Uiso   1.00
loop_
_geom_bond_atom_site_label_1
_geom_bond_atom_site_label_2
_geom_bond_distance
_geom_bond_site_symmetry_2
_ccdc_geom_bond_type
C001   C002    1.408   .     D
C001   C003    1.408   .     S
C001   C019    1.447   1_545 S
C002   C008    1.439   .     S
C002   N002    1.388   .     S
C003   C005    1.439   .     D
C003   N001    1.388   .     S
C004   C005    1.396   1_565 S
C004   C016    1.439   .     D
C004   C018    1.442   .     S
C005   C004    1.396   1_545 S
C005   C006    1.442   .     S
C006   C007    1.437   .     S
C006   C009    1.398   1_655 D
C007   C020    1.409   .     S
C007   N001    1.391   .     D
C008   C009    1.442   .     S
C008   C014    1.396   1_545 D
C009   C006    1.398   1_455 D
C009   C010    1.437   .     S
C010   C011    1.409   .     S
C010   N002    1.392   .     D
C011   C012    1.409   .     S
C011   C020    1.449   1_455 D
C012   C015    1.437   .     S
C012   N003    1.392   .     D
C013   C014    1.439   .     S
C013   C019    1.408   .     D
C013   N003    1.388   .     S
C014   C008    1.396   1_565 D
C014   C015    1.442   .     S
C015   C018    1.398   1_455 D
C016   C019    1.408   .     S
C016   N004    1.387   .     S
C017   C018    1.436   .     S
C017   C020    1.409   .     S
C017   N004    1.391   .     D
C018   C015    1.398   1_655 D
C019   C001    1.447   1_565 S
C020   C011    1.449   1_655 D
N001   Fe001   2.002   .     S
N002   Fe001   2.004   .     S
N003   Fe001   2.003   .     S
N004   Fe001   2.002   .     S
N005   Fe001   1.772   .     S
N005   O001    1.223   .     D
N005   O002    1.475   .     S
O002   H001    0.984   .     S
