data_e-0.2-opt
_audit_creation_date              2024-12-22
_audit_creation_method            'Materials Studio'
_symmetry_space_group_name_H-M    'P1'
_symmetry_Int_Tables_number       1
_symmetry_cell_setting            triclinic
loop_
_symmetry_equiv_pos_as_xyz
  x,y,z
_cell_length_a                    8.3946
_cell_length_b                    8.3946
_cell_length_c                    20.0374
_cell_angle_alpha                 90.0000
_cell_angle_beta                  90.0000
_cell_angle_gamma                 90.0000
loop_
_atom_site_label
_atom_site_type_symbol
_atom_site_fract_x
_atom_site_fract_y
_atom_site_fract_z
_atom_site_U_iso_or_equiv
_atom_site_adp_type
_atom_site_occupancy
C001   C     0.50046   0.08435   0.13888   1.00000  Uiso   1.00
C002   C     0.35397   0.16605   0.13883   1.00000  Uiso   1.00
C003   C     0.64693   0.16607   0.13850   1.00000  Uiso   1.00
C004   C     0.79578   0.91467   0.13816   1.00000  Uiso   1.00
C005   C     0.79575   0.08165   0.13815   1.00000  Uiso   1.00
C006   C     0.91692   0.20288   0.13831   1.00000  Uiso   1.00
C007   C     0.83243   0.35154   0.13881   1.00000  Uiso   1.00
C008   C     0.20514   0.08163   0.13841   1.00000  Uiso   1.00
C009   C     0.08398   0.20287   0.13845   1.00000  Uiso   1.00
C010   C     0.16847   0.35155   0.13909   1.00000  Uiso   1.00
C011   C     0.08679   0.49814   0.13932   1.00000  Uiso   1.00
C012   C     0.16840   0.64475   0.13889   1.00000  Uiso   1.00
C013   C     0.35393   0.83015   0.13878   1.00000  Uiso   1.00
C014   C     0.20513   0.91465   0.13836   1.00000  Uiso   1.00
C015   C     0.08398   0.79345   0.13830   1.00000  Uiso   1.00
C016   C     0.64696   0.83018   0.13848   1.00000  Uiso   1.00
C017   C     0.83254   0.64477   0.13859   1.00000  Uiso   1.00
C018   C     0.91693   0.79347   0.13818   1.00000  Uiso   1.00
C019   C     0.50043   0.91187   0.13890   1.00000  Uiso   1.00
C020   C     0.91410   0.49814   0.13915   1.00000  Uiso   1.00
N001   N     0.66787   0.33041   0.13842   1.00000  Uiso   1.00
N002   N     0.33305   0.33038   0.13881   1.00000  Uiso   1.00
N003   N     0.33296   0.66583   0.13861   1.00000  Uiso   1.00
N004   N     0.66800   0.66590   0.13804   1.00000  Uiso   1.00
N005   N     0.50334   0.50527   0.23741   1.00000  Uiso   1.00
Fe001  Fe    0.50069   0.49808   0.14820   1.00000  Uiso   1.00
O001   O     0.49926   0.61952   0.27485   1.00000  Uiso   1.00
O002   O     0.51334   0.35198   0.27005   1.00000  Uiso   1.00
H001   H     0.51630   0.38072   0.31777   1.00000  Uiso   1.00
loop_
_geom_bond_atom_site_label_1
_geom_bond_atom_site_label_2
_geom_bond_distance
_geom_bond_site_symmetry_2
_ccdc_geom_bond_type
C001   C002    1.408   .     D
C001   C003    1.408   .     S
C001   C019    1.448   1_545 S
C002   C008    1.436   .     S
C002   N002    1.391   .     S
C003   C005    1.436   .     D
C003   N001    1.391   .     S
C004   C005    1.402   1_565 S
C004   C016    1.437   .     D
C004   C018    1.439   .     S
C005   C004    1.402   1_545 S
C005   C006    1.439   .     S
C006   C007    1.435   .     S
C006   C009    1.402   1_655 D
C007   C020    1.409   .     S
C007   N001    1.393   .     D
C008   C009    1.439   .     S
C008   C014    1.402   1_545 D
C009   C006    1.402   1_455 D
C009   C010    1.436   .     S
C010   C011    1.409   .     S
C010   N002    1.393   .     D
C011   C012    1.409   .     S
C011   C020    1.450   1_455 D
C012   C015    1.435   .     S
C012   N003    1.393   .     D
C013   C014    1.437   .     S
C013   C019    1.408   .     D
C013   N003    1.391   .     S
C014   C008    1.402   1_565 D
C014   C015    1.438   .     S
C015   C018    1.402   1_455 D
C016   C019    1.408   .     S
C016   N004    1.390   .     S
C017   C018    1.435   .     S
C017   C020    1.409   .     S
C017   N004    1.393   .     D
C018   C015    1.402   1_655 D
C019   C001    1.448   1_565 S
C020   C011    1.450   1_655 D
N001   Fe001   1.997   .     S
N002   Fe001   1.999   .     S
N003   Fe001   2.001   .     S
N004   Fe001   2.000   .     S
N005   Fe001   1.789   .     S
N005   O001    1.218   .     D
N005   O002    1.446   .     S
O002   H001    0.987   .     S
