data_e+0.0-opt
_audit_creation_date              2024-12-22
_audit_creation_method            'Materials Studio'
_symmetry_space_group_name_H-M    'P1'
_symmetry_Int_Tables_number       1
_symmetry_cell_setting            triclinic
loop_
_symmetry_equiv_pos_as_xyz
  x,y,z
_cell_length_a                    8.3946
_cell_length_b                    8.3946
_cell_length_c                    20.0374
_cell_angle_alpha                 90.0000
_cell_angle_beta                  90.0000
_cell_angle_gamma                 90.0000
loop_
_atom_site_label
_atom_site_type_symbol
_atom_site_fract_x
_atom_site_fract_y
_atom_site_fract_z
_atom_site_U_iso_or_equiv
_atom_site_adp_type
_atom_site_occupancy
C001   C     0.50045   0.08435   0.13890   1.00000  Uiso   1.00
C002   C     0.35396   0.16606   0.13883   1.00000  Uiso   1.00
C003   C     0.64692   0.16607   0.13851   1.00000  Uiso   1.00
C004   C     0.79578   0.91470   0.13817   1.00000  Uiso   1.00
C005   C     0.79575   0.08163   0.13816   1.00000  Uiso   1.00
C006   C     0.91692   0.20287   0.13829   1.00000  Uiso   1.00
C007   C     0.83241   0.35155   0.13879   1.00000  Uiso   1.00
C008   C     0.20511   0.08161   0.13841   1.00000  Uiso   1.00
C009   C     0.08395   0.20287   0.13843   1.00000  Uiso   1.00
C010   C     0.16845   0.35155   0.13906   1.00000  Uiso   1.00
C011   C     0.08678   0.49815   0.13928   1.00000  Uiso   1.00
C012   C     0.16839   0.64476   0.13887   1.00000  Uiso   1.00
C013   C     0.35392   0.83017   0.13880   1.00000  Uiso   1.00
C014   C     0.20509   0.91468   0.13837   1.00000  Uiso   1.00
C015   C     0.08394   0.79347   0.13828   1.00000  Uiso   1.00
C016   C     0.64694   0.83021   0.13850   1.00000  Uiso   1.00
C017   C     0.83252   0.64478   0.13857   1.00000  Uiso   1.00
C018   C     0.91694   0.79348   0.13817   1.00000  Uiso   1.00
C019   C     0.50042   0.91189   0.13893   1.00000  Uiso   1.00
C020   C     0.91409   0.49814   0.13912   1.00000  Uiso   1.00
N001   N     0.66790   0.33036   0.13843   1.00000  Uiso   1.00
N002   N     0.33299   0.33034   0.13880   1.00000  Uiso   1.00
N003   N     0.33291   0.66590   0.13862   1.00000  Uiso   1.00
N004   N     0.66802   0.66597   0.13805   1.00000  Uiso   1.00
N005   N     0.50329   0.50553   0.23720   1.00000  Uiso   1.00
Fe001  Fe    0.50067   0.49815   0.14832   1.00000  Uiso   1.00
O001   O     0.49918   0.61933   0.27504   1.00000  Uiso   1.00
O002   O     0.51350   0.35134   0.27011   1.00000  Uiso   1.00
H001   H     0.51664   0.38101   0.31768   1.00000  Uiso   1.00
loop_
_geom_bond_atom_site_label_1
_geom_bond_atom_site_label_2
_geom_bond_distance
_geom_bond_site_symmetry_2
_ccdc_geom_bond_type
C001   C002    1.408   .     D
C001   C003    1.408   .     S
C001   C019    1.448   1_545 S
C002   C008    1.437   .     S
C002   N002    1.390   .     S
C003   C005    1.436   .     D
C003   N001    1.390   .     S
C004   C005    1.401   1_565 S
C004   C016    1.437   .     D
C004   C018    1.439   .     S
C005   C004    1.401   1_545 S
C005   C006    1.439   .     S
C006   C007    1.436   .     S
C006   C009    1.402   1_655 D
C007   C020    1.409   .     S
C007   N001    1.392   .     D
C008   C009    1.439   .     S
C008   C014    1.401   1_545 D
C009   C006    1.402   1_455 D
C009   C010    1.436   .     S
C010   C011    1.409   .     S
C010   N002    1.393   .     D
C011   C012    1.409   .     S
C011   C020    1.450   1_455 D
C012   C015    1.436   .     S
C012   N003    1.393   .     D
C013   C014    1.437   .     S
C013   C019    1.408   .     D
C013   N003    1.390   .     S
C014   C008    1.401   1_565 D
C014   C015    1.439   .     S
C015   C018    1.402   1_455 D
C016   C019    1.408   .     S
C016   N004    1.390   .     S
C017   C018    1.436   .     S
C017   C020    1.409   .     S
C017   N004    1.392   .     D
C018   C015    1.402   1_655 D
C019   C001    1.448   1_565 S
C020   C011    1.450   1_655 D
N001   Fe001   1.998   .     S
N002   Fe001   2.001   .     S
N003   Fe001   2.001   .     S
N004   Fe001   2.000   .     S
N005   Fe001   1.782   .     S
N005   O001    1.220   .     D
N005   O002    1.455   .     S
O002   H001    0.986   .     S
