data_e+0.6-opt
_audit_creation_date              2024-12-22
_audit_creation_method            'Materials Studio'
_symmetry_space_group_name_H-M    'P1'
_symmetry_Int_Tables_number       1
_symmetry_cell_setting            triclinic
loop_
_symmetry_equiv_pos_as_xyz
  x,y,z
_cell_length_a                    8.3946
_cell_length_b                    8.3946
_cell_length_c                    20.0374
_cell_angle_alpha                 90.0000
_cell_angle_beta                  90.0000
_cell_angle_gamma                 90.0000
loop_
_atom_site_label
_atom_site_type_symbol
_atom_site_fract_x
_atom_site_fract_y
_atom_site_fract_z
_atom_site_U_iso_or_equiv
_atom_site_adp_type
_atom_site_occupancy
C001   C     0.50047   0.08433   0.13878   1.00000  Uiso   1.00
C002   C     0.35401   0.16603   0.13873   1.00000  Uiso   1.00
C003   C     0.64692   0.16604   0.13840   1.00000  Uiso   1.00
C004   C     0.79584   0.91472   0.13817   1.00000  Uiso   1.00
C005   C     0.79581   0.08157   0.13814   1.00000  Uiso   1.00
C006   C     0.91698   0.20280   0.13833   1.00000  Uiso   1.00
C007   C     0.83242   0.35153   0.13880   1.00000  Uiso   1.00
C008   C     0.20509   0.08157   0.13841   1.00000  Uiso   1.00
C009   C     0.08394   0.20280   0.13848   1.00000  Uiso   1.00
C010   C     0.16849   0.35154   0.13908   1.00000  Uiso   1.00
C011   C     0.08680   0.49812   0.13933   1.00000  Uiso   1.00
C012   C     0.16841   0.64473   0.13889   1.00000  Uiso   1.00
C013   C     0.35395   0.83021   0.13871   1.00000  Uiso   1.00
C014   C     0.20506   0.91470   0.13837   1.00000  Uiso   1.00
C015   C     0.08392   0.79348   0.13833   1.00000  Uiso   1.00
C016   C     0.64694   0.83024   0.13839   1.00000  Uiso   1.00
C017   C     0.83253   0.64474   0.13858   1.00000  Uiso   1.00
C018   C     0.91699   0.79349   0.13821   1.00000  Uiso   1.00
C019   C     0.50044   0.91193   0.13881   1.00000  Uiso   1.00
C020   C     0.91411   0.49812   0.13916   1.00000  Uiso   1.00
N001   N     0.66803   0.33022   0.13841   1.00000  Uiso   1.00
N002   N     0.33292   0.33021   0.13877   1.00000  Uiso   1.00
N003   N     0.33286   0.66605   0.13859   1.00000  Uiso   1.00
N004   N     0.66810   0.66611   0.13798   1.00000  Uiso   1.00
N005   N     0.50316   0.50671   0.23655   1.00000  Uiso   1.00
Fe001  Fe    0.50071   0.49834   0.14863   1.00000  Uiso   1.00
O001   O     0.49936   0.61910   0.27562   1.00000  Uiso   1.00
O002   O     0.51326   0.34924   0.27049   1.00000  Uiso   1.00
H001   H     0.51632   0.38228   0.31755   1.00000  Uiso   1.00
loop_
_geom_bond_atom_site_label_1
_geom_bond_atom_site_label_2
_geom_bond_distance
_geom_bond_site_symmetry_2
_ccdc_geom_bond_type
C001   C002    1.408   .     D
C001   C003    1.408   .     S
C001   C019    1.447   1_545 S
C002   C008    1.437   .     S
C002   N002    1.390   .     S
C003   C005    1.437   .     D
C003   N001    1.390   .     S
C004   C005    1.401   1_565 S
C004   C016    1.437   .     D
C004   C018    1.439   .     S
C005   C004    1.401   1_545 S
C005   C006    1.439   .     S
C006   C007    1.436   .     S
C006   C009    1.402   1_655 D
C007   C020    1.409   .     S
C007   N001    1.392   .     D
C008   C009    1.439   .     S
C008   C014    1.401   1_545 D
C009   C006    1.402   1_455 D
C009   C010    1.436   .     S
C010   C011    1.409   .     S
C010   N002    1.392   .     D
C011   C012    1.409   .     S
C011   C020    1.450   1_455 D
C012   C015    1.436   .     S
C012   N003    1.392   .     D
C013   C014    1.437   .     S
C013   C019    1.408   .     D
C013   N003    1.389   .     S
C014   C008    1.401   1_565 D
C014   C015    1.439   .     S
C015   C018    1.401   1_455 D
C016   C019    1.408   .     S
C016   N004    1.389   .     S
C017   C018    1.436   .     S
C017   C020    1.409   .     S
C017   N004    1.392   .     D
C018   C015    1.401   1_655 D
C019   C001    1.447   1_565 S
C020   C011    1.450   1_655 D
N001   Fe001   2.002   .     S
N002   Fe001   2.004   .     S
N003   Fe001   2.002   .     S
N004   Fe001   2.001   .     S
N005   Fe001   1.763   .     S
N005   O001    1.226   .     D
N005   O002    1.489   .     S
O002   H001    0.983   .     S
