data_e-0.4-opt
_audit_creation_date              2024-12-22
_audit_creation_method            'Materials Studio'
_symmetry_space_group_name_H-M    'P1'
_symmetry_Int_Tables_number       1
_symmetry_cell_setting            triclinic
loop_
_symmetry_equiv_pos_as_xyz
  x,y,z
_cell_length_a                    8.3946
_cell_length_b                    8.3946
_cell_length_c                    20.0374
_cell_angle_alpha                 90.0000
_cell_angle_beta                  90.0000
_cell_angle_gamma                 90.0000
loop_
_atom_site_label
_atom_site_type_symbol
_atom_site_fract_x
_atom_site_fract_y
_atom_site_fract_z
_atom_site_U_iso_or_equiv
_atom_site_adp_type
_atom_site_occupancy
C001   C     0.50046   0.08435   0.13889   1.00000  Uiso   1.00
C002   C     0.35396   0.16605   0.13884   1.00000  Uiso   1.00
C003   C     0.64694   0.16607   0.13850   1.00000  Uiso   1.00
C004   C     0.79577   0.91464   0.13815   1.00000  Uiso   1.00
C005   C     0.79574   0.08167   0.13814   1.00000  Uiso   1.00
C006   C     0.91689   0.20288   0.13830   1.00000  Uiso   1.00
C007   C     0.83244   0.35154   0.13881   1.00000  Uiso   1.00
C008   C     0.20515   0.08165   0.13840   1.00000  Uiso   1.00
C009   C     0.08401   0.20288   0.13844   1.00000  Uiso   1.00
C010   C     0.16846   0.35154   0.13908   1.00000  Uiso   1.00
C011   C     0.08680   0.49814   0.13931   1.00000  Uiso   1.00
C012   C     0.16839   0.64475   0.13888   1.00000  Uiso   1.00
C013   C     0.35392   0.83014   0.13879   1.00000  Uiso   1.00
C014   C     0.20514   0.91462   0.13835   1.00000  Uiso   1.00
C015   C     0.08401   0.79345   0.13829   1.00000  Uiso   1.00
C016   C     0.64697   0.83017   0.13848   1.00000  Uiso   1.00
C017   C     0.83254   0.64477   0.13858   1.00000  Uiso   1.00
C018   C     0.91691   0.79347   0.13817   1.00000  Uiso   1.00
C019   C     0.50044   0.91185   0.13891   1.00000  Uiso   1.00
C020   C     0.91410   0.49814   0.13914   1.00000  Uiso   1.00
N001   N     0.66783   0.33046   0.13840   1.00000  Uiso   1.00
N002   N     0.33308   0.33043   0.13880   1.00000  Uiso   1.00
N003   N     0.33299   0.66576   0.13860   1.00000  Uiso   1.00
N004   N     0.66797   0.66584   0.13804   1.00000  Uiso   1.00
N005   N     0.50337   0.50502   0.23766   1.00000  Uiso   1.00
Fe001  Fe    0.50068   0.49803   0.14809   1.00000  Uiso   1.00
O001   O     0.49924   0.61967   0.27472   1.00000  Uiso   1.00
O002   O     0.51335   0.35255   0.27003   1.00000  Uiso   1.00
H001   H     0.51628   0.38036   0.31790   1.00000  Uiso   1.00
loop_
_geom_bond_atom_site_label_1
_geom_bond_atom_site_label_2
_geom_bond_distance
_geom_bond_site_symmetry_2
_ccdc_geom_bond_type
C001   C002    1.408   .     D
C001   C003    1.408   .     S
C001   C019    1.448   1_545 S
C002   C008    1.436   .     S
C002   N002    1.391   .     S
C003   C005    1.436   .     D
C003   N001    1.391   .     S
C004   C005    1.402   1_565 S
C004   C016    1.436   .     D
C004   C018    1.438   .     S
C005   C004    1.402   1_545 S
C005   C006    1.439   .     S
C006   C007    1.435   .     S
C006   C009    1.403   1_655 D
C007   C020    1.409   .     S
C007   N001    1.393   .     D
C008   C009    1.439   .     S
C008   C014    1.402   1_545 D
C009   C006    1.403   1_455 D
C009   C010    1.435   .     S
C010   C011    1.409   .     S
C010   N002    1.393   .     D
C011   C012    1.409   .     S
C011   C020    1.450   1_455 D
C012   C015    1.435   .     S
C012   N003    1.393   .     D
C013   C014    1.436   .     S
C013   C019    1.408   .     D
C013   N003    1.391   .     S
C014   C008    1.402   1_565 D
C014   C015    1.438   .     S
C015   C018    1.403   1_455 D
C016   C019    1.408   .     S
C016   N004    1.391   .     S
C017   C018    1.435   .     S
C017   C020    1.409   .     S
C017   N004    1.393   .     D
C018   C015    1.403   1_655 D
C019   C001    1.448   1_565 S
C020   C011    1.450   1_655 D
N001   Fe001   1.996   .     S
N002   Fe001   1.998   .     S
N003   Fe001   2.000   .     S
N004   Fe001   1.999   .     S
N005   Fe001   1.796   .     S
N005   O001    1.216   .     D
N005   O002    1.437   .     S
O002   H001    0.988   .     S
