data_e-0.8-opt
_audit_creation_date              2024-12-22
_audit_creation_method            'Materials Studio'
_symmetry_space_group_name_H-M    'P1'
_symmetry_Int_Tables_number       1
_symmetry_cell_setting            triclinic
loop_
_symmetry_equiv_pos_as_xyz
  x,y,z
_cell_length_a                    8.3946
_cell_length_b                    8.3946
_cell_length_c                    20.0374
_cell_angle_alpha                 90.0000
_cell_angle_beta                  90.0000
_cell_angle_gamma                 90.0000
loop_
_atom_site_label
_atom_site_type_symbol
_atom_site_fract_x
_atom_site_fract_y
_atom_site_fract_z
_atom_site_U_iso_or_equiv
_atom_site_adp_type
_atom_site_occupancy
C001   C     0.50047   0.08430   0.13888   1.00000  Uiso   1.00
C002   C     0.35399   0.16606   0.13885   1.00000  Uiso   1.00
C003   C     0.64692   0.16607   0.13850   1.00000  Uiso   1.00
C004   C     0.79580   0.91472   0.13810   1.00000  Uiso   1.00
C005   C     0.79577   0.08157   0.13810   1.00000  Uiso   1.00
C006   C     0.91698   0.20287   0.13826   1.00000  Uiso   1.00
C007   C     0.83245   0.35154   0.13878   1.00000  Uiso   1.00
C008   C     0.20514   0.08154   0.13837   1.00000  Uiso   1.00
C009   C     0.08393   0.20286   0.13841   1.00000  Uiso   1.00
C010   C     0.16847   0.35154   0.13907   1.00000  Uiso   1.00
C011   C     0.08678   0.49812   0.13928   1.00000  Uiso   1.00
C012   C     0.16840   0.64473   0.13885   1.00000  Uiso   1.00
C013   C     0.35395   0.83006   0.13877   1.00000  Uiso   1.00
C014   C     0.20514   0.91469   0.13831   1.00000  Uiso   1.00
C015   C     0.08393   0.79344   0.13825   1.00000  Uiso   1.00
C016   C     0.64696   0.83010   0.13847   1.00000  Uiso   1.00
C017   C     0.83257   0.64476   0.13856   1.00000  Uiso   1.00
C018   C     0.91701   0.79347   0.13813   1.00000  Uiso   1.00
C019   C     0.50045   0.91182   0.13889   1.00000  Uiso   1.00
C020   C     0.91414   0.49813   0.13912   1.00000  Uiso   1.00
N001   N     0.66781   0.33045   0.13842   1.00000  Uiso   1.00
N002   N     0.33312   0.33042   0.13886   1.00000  Uiso   1.00
N003   N     0.33301   0.66570   0.13862   1.00000  Uiso   1.00
N004   N     0.66799   0.66578   0.13809   1.00000  Uiso   1.00
N005   N     0.50347   0.50473   0.23815   1.00000  Uiso   1.00
Fe001  Fe    0.50069   0.49788   0.14783   1.00000  Uiso   1.00
O001   O     0.49922   0.62038   0.27433   1.00000  Uiso   1.00
O002   O     0.51332   0.35379   0.27008   1.00000  Uiso   1.00
H001   H     0.51596   0.37938   0.31835   1.00000  Uiso   1.00
loop_
_geom_bond_atom_site_label_1
_geom_bond_atom_site_label_2
_geom_bond_distance
_geom_bond_site_symmetry_2
_ccdc_geom_bond_type
C001   C002    1.408   .     D
C001   C003    1.408   .     S
C001   C019    1.448   1_545 S
C002   C008    1.437   .     S
C002   N002    1.391   .     S
C003   C005    1.437   .     D
C003   N001    1.391   .     S
C004   C005    1.401   1_565 S
C004   C016    1.437   .     D
C004   C018    1.439   .     S
C005   C004    1.401   1_545 S
C005   C006    1.440   .     S
C006   C007    1.436   .     S
C006   C009    1.401   1_655 D
C007   C020    1.409   .     S
C007   N001    1.393   .     D
C008   C009    1.440   .     S
C008   C014    1.401   1_545 D
C009   C006    1.401   1_455 D
C009   C010    1.436   .     S
C010   C011    1.409   .     S
C010   N002    1.394   .     D
C011   C012    1.409   .     S
C011   C020    1.449   1_455 D
C012   C015    1.436   .     S
C012   N003    1.393   .     D
C013   C014    1.437   .     S
C013   C019    1.408   .     D
C013   N003    1.391   .     S
C014   C008    1.401   1_565 D
C014   C015    1.439   .     S
C015   C018    1.401   1_455 D
C016   C019    1.408   .     S
C016   N004    1.391   .     S
C017   C018    1.436   .     S
C017   C020    1.409   .     S
C017   N004    1.393   .     D
C018   C015    1.401   1_655 D
C019   C001    1.448   1_565 S
C020   C011    1.449   1_655 D
N001   Fe001   1.995   .     S
N002   Fe001   1.997   .     S
N003   Fe001   2.000   .     S
N004   Fe001   1.999   .     S
N005   Fe001   1.811   .     S
N005   O001    1.212   .     D
N005   O002    1.422   .     S
O002   H001    0.991   .     S
