data_e+0.4-opt
_audit_creation_date              2024-12-22
_audit_creation_method            'Materials Studio'
_symmetry_space_group_name_H-M    'P1'
_symmetry_Int_Tables_number       1
_symmetry_cell_setting            triclinic
loop_
_symmetry_equiv_pos_as_xyz
  x,y,z
_cell_length_a                    8.3946
_cell_length_b                    8.3946
_cell_length_c                    20.0374
_cell_angle_alpha                 90.0000
_cell_angle_beta                  90.0000
_cell_angle_gamma                 90.0000
loop_
_atom_site_label
_atom_site_type_symbol
_atom_site_fract_x
_atom_site_fract_y
_atom_site_fract_z
_atom_site_U_iso_or_equiv
_atom_site_adp_type
_atom_site_occupancy
C001   C     0.50046   0.08431   0.13885   1.00000  Uiso   1.00
C002   C     0.35403   0.16606   0.13878   1.00000  Uiso   1.00
C003   C     0.64688   0.16607   0.13845   1.00000  Uiso   1.00
C004   C     0.79585   0.91472   0.13818   1.00000  Uiso   1.00
C005   C     0.79582   0.08159   0.13816   1.00000  Uiso   1.00
C006   C     0.91697   0.20279   0.13832   1.00000  Uiso   1.00
C007   C     0.83239   0.35158   0.13880   1.00000  Uiso   1.00
C008   C     0.20506   0.08158   0.13842   1.00000  Uiso   1.00
C009   C     0.08394   0.20279   0.13846   1.00000  Uiso   1.00
C010   C     0.16850   0.35159   0.13908   1.00000  Uiso   1.00
C011   C     0.08677   0.49813   0.13931   1.00000  Uiso   1.00
C012   C     0.16842   0.64470   0.13889   1.00000  Uiso   1.00
C013   C     0.35398   0.83015   0.13875   1.00000  Uiso   1.00
C014   C     0.20505   0.91470   0.13838   1.00000  Uiso   1.00
C015   C     0.08391   0.79351   0.13831   1.00000  Uiso   1.00
C016   C     0.64690   0.83019   0.13845   1.00000  Uiso   1.00
C017   C     0.83251   0.64471   0.13858   1.00000  Uiso   1.00
C018   C     0.91699   0.79352   0.13820   1.00000  Uiso   1.00
C019   C     0.50043   0.91192   0.13888   1.00000  Uiso   1.00
C020   C     0.91412   0.49813   0.13915   1.00000  Uiso   1.00
N001   N     0.66801   0.33023   0.13842   1.00000  Uiso   1.00
N002   N     0.33292   0.33021   0.13879   1.00000  Uiso   1.00
N003   N     0.33285   0.66603   0.13860   1.00000  Uiso   1.00
N004   N     0.66810   0.66609   0.13801   1.00000  Uiso   1.00
N005   N     0.50322   0.50627   0.23677   1.00000  Uiso   1.00
Fe001  Fe    0.50070   0.49827   0.14847   1.00000  Uiso   1.00
O001   O     0.49928   0.61931   0.27535   1.00000  Uiso   1.00
O002   O     0.51338   0.35003   0.27034   1.00000  Uiso   1.00
H001   H     0.51640   0.38173   0.31754   1.00000  Uiso   1.00
loop_
_geom_bond_atom_site_label_1
_geom_bond_atom_site_label_2
_geom_bond_distance
_geom_bond_site_symmetry_2
_ccdc_geom_bond_type
C001   C002    1.408   .     D
C001   C003    1.408   .     S
C001   C019    1.447   1_545 S
C002   C008    1.438   .     S
C002   N002    1.389   .     S
C003   C005    1.437   .     D
C003   N001    1.389   .     S
C004   C005    1.401   1_565 S
C004   C016    1.438   .     D
C004   C018    1.438   .     S
C005   C004    1.401   1_545 S
C005   C006    1.439   .     S
C006   C007    1.437   .     S
C006   C009    1.402   1_655 D
C007   C020    1.409   .     S
C007   N001    1.391   .     D
C008   C009    1.439   .     S
C008   C014    1.401   1_545 D
C009   C006    1.402   1_455 D
C009   C010    1.437   .     S
C010   C011    1.409   .     S
C010   N002    1.392   .     D
C011   C012    1.408   .     S
C011   C020    1.449   1_455 D
C012   C015    1.437   .     S
C012   N003    1.392   .     D
C013   C014    1.438   .     S
C013   C019    1.408   .     D
C013   N003    1.389   .     S
C014   C008    1.401   1_565 D
C014   C015    1.438   .     S
C015   C018    1.401   1_455 D
C016   C019    1.408   .     S
C016   N004    1.389   .     S
C017   C018    1.437   .     S
C017   C020    1.408   .     S
C017   N004    1.392   .     D
C018   C015    1.401   1_655 D
C019   C001    1.447   1_565 S
C020   C011    1.449   1_655 D
N001   Fe001   2.001   .     S
N002   Fe001   2.003   .     S
N003   Fe001   2.002   .     S
N004   Fe001   2.001   .     S
N005   Fe001   1.771   .     S
N005   O001    1.224   .     D
N005   O002    1.476   .     S
O002   H001    0.983   .     S
