data_e+0.2-opt
_audit_creation_date              2024-12-22
_audit_creation_method            'Materials Studio'
_symmetry_space_group_name_H-M    'P1'
_symmetry_Int_Tables_number       1
_symmetry_cell_setting            triclinic
loop_
_symmetry_equiv_pos_as_xyz
  x,y,z
_cell_length_a                    8.3946
_cell_length_b                    8.3946
_cell_length_c                    20.0374
_cell_angle_alpha                 90.0000
_cell_angle_beta                  90.0000
_cell_angle_gamma                 90.0000
loop_
_atom_site_label
_atom_site_type_symbol
_atom_site_fract_x
_atom_site_fract_y
_atom_site_fract_z
_atom_site_U_iso_or_equiv
_atom_site_adp_type
_atom_site_occupancy
C001   C     0.50046   0.08433   0.13885   1.00000  Uiso   1.00
C002   C     0.35399   0.16603   0.13880   1.00000  Uiso   1.00
C003   C     0.64693   0.16605   0.13846   1.00000  Uiso   1.00
C004   C     0.79581   0.91470   0.13817   1.00000  Uiso   1.00
C005   C     0.79578   0.08160   0.13815   1.00000  Uiso   1.00
C006   C     0.91695   0.20284   0.13832   1.00000  Uiso   1.00
C007   C     0.83243   0.35153   0.13881   1.00000  Uiso   1.00
C008   C     0.20511   0.08159   0.13842   1.00000  Uiso   1.00
C009   C     0.08395   0.20283   0.13847   1.00000  Uiso   1.00
C010   C     0.16847   0.35154   0.13909   1.00000  Uiso   1.00
C011   C     0.08680   0.49813   0.13933   1.00000  Uiso   1.00
C012   C     0.16840   0.64474   0.13890   1.00000  Uiso   1.00
C013   C     0.35394   0.83017   0.13876   1.00000  Uiso   1.00
C014   C     0.20509   0.91468   0.13838   1.00000  Uiso   1.00
C015   C     0.08395   0.79346   0.13832   1.00000  Uiso   1.00
C016   C     0.64695   0.83021   0.13845   1.00000  Uiso   1.00
C017   C     0.83254   0.64475   0.13859   1.00000  Uiso   1.00
C018   C     0.91697   0.79348   0.13820   1.00000  Uiso   1.00
C019   C     0.50044   0.91189   0.13888   1.00000  Uiso   1.00
C020   C     0.91410   0.49813   0.13916   1.00000  Uiso   1.00
N001   N     0.66795   0.33030   0.13842   1.00000  Uiso   1.00
N002   N     0.33298   0.33028   0.13880   1.00000  Uiso   1.00
N003   N     0.33290   0.66594   0.13861   1.00000  Uiso   1.00
N004   N     0.66806   0.66601   0.13803   1.00000  Uiso   1.00
N005   N     0.50326   0.50593   0.23696   1.00000  Uiso   1.00
Fe001  Fe    0.50070   0.49820   0.14840   1.00000  Uiso   1.00
O001   O     0.49930   0.61931   0.27518   1.00000  Uiso   1.00
O002   O     0.51332   0.35078   0.27019   1.00000  Uiso   1.00
H001   H     0.51632   0.38148   0.31760   1.00000  Uiso   1.00
loop_
_geom_bond_atom_site_label_1
_geom_bond_atom_site_label_2
_geom_bond_distance
_geom_bond_site_symmetry_2
_ccdc_geom_bond_type
C001   C002    1.408   .     D
C001   C003    1.408   .     S
C001   C019    1.448   1_545 S
C002   C008    1.437   .     S
C002   N002    1.390   .     S
C003   C005    1.437   .     D
C003   N001    1.390   .     S
C004   C005    1.401   1_565 S
C004   C016    1.437   .     D
C004   C018    1.439   .     S
C005   C004    1.401   1_545 S
C005   C006    1.439   .     S
C006   C007    1.436   .     S
C006   C009    1.402   1_655 D
C007   C020    1.409   .     S
C007   N001    1.392   .     D
C008   C009    1.439   .     S
C008   C014    1.401   1_545 D
C009   C006    1.402   1_455 D
C009   C010    1.436   .     S
C010   C011    1.409   .     S
C010   N002    1.392   .     D
C011   C012    1.409   .     S
C011   C020    1.450   1_455 D
C012   C015    1.436   .     S
C012   N003    1.392   .     D
C013   C014    1.437   .     S
C013   C019    1.408   .     D
C013   N003    1.390   .     S
C014   C008    1.401   1_565 D
C014   C015    1.439   .     S
C015   C018    1.402   1_455 D
C016   C019    1.408   .     S
C016   N004    1.390   .     S
C017   C018    1.436   .     S
C017   C020    1.409   .     S
C017   N004    1.392   .     D
C018   C015    1.402   1_655 D
C019   C001    1.448   1_565 S
C020   C011    1.450   1_655 D
N001   Fe001   1.999   .     S
N002   Fe001   2.002   .     S
N003   Fe001   2.001   .     S
N004   Fe001   2.000   .     S
N005   Fe001   1.776   .     S
N005   O001    1.222   .     D
N005   O002    1.465   .     S
O002   H001    0.985   .     S
