data_e+0.4-opt
_audit_creation_date              2024-12-22
_audit_creation_method            'Materials Studio'
_symmetry_space_group_name_H-M    'P1'
_symmetry_Int_Tables_number       1
_symmetry_cell_setting            triclinic
loop_
_symmetry_equiv_pos_as_xyz
  x,y,z
_cell_length_a                    12.4809
_cell_length_b                    12.7442
_cell_length_c                    19.9998
_cell_angle_alpha                 90.0000
_cell_angle_beta                  90.0000
_cell_angle_gamma                 90.0000
loop_
_atom_site_label
_atom_site_type_symbol
_atom_site_fract_x
_atom_site_fract_y
_atom_site_fract_z
_atom_site_U_iso_or_equiv
_atom_site_adp_type
_atom_site_occupancy
C001   C     0.05018   0.04535   0.15574   1.00000  Uiso   1.00
C002   C     0.15060   0.10017   0.15550   1.00000  Uiso   1.00
C003   C     0.14998   0.21157   0.15422   1.00000  Uiso   1.00
C004   C     0.05011   0.26666   0.15337   1.00000  Uiso   1.00
C005   C     0.25137   0.04578   0.15645   1.00000  Uiso   1.00
C006   C     0.35150   0.10193   0.15699   1.00000  Uiso   1.00
C007   C     0.35042   0.21448   0.15585   1.00000  Uiso   1.00
C008   C     0.24917   0.26721   0.15410   1.00000  Uiso   1.00
C009   C     0.45164   0.04656   0.15837   1.00000  Uiso   1.00
C010   C     0.55018   0.10538   0.15883   1.00000  Uiso   1.00
C011   C     0.55015   0.22002   0.15854   1.00000  Uiso   1.00
C012   C     0.44852   0.27499   0.15687   1.00000  Uiso   1.00
C013   C     0.64876   0.04653   0.15863   1.00000  Uiso   1.00
C014   C     0.74890   0.10194   0.15742   1.00000  Uiso   1.00
C015   C     0.75000   0.21448   0.15658   1.00000  Uiso   1.00
C016   C     0.65202   0.27512   0.15774   1.00000  Uiso   1.00
C017   C     0.84898   0.04580   0.15679   1.00000  Uiso   1.00
C018   C     0.94973   0.10021   0.15572   1.00000  Uiso   1.00
C019   C     0.95033   0.21155   0.15454   1.00000  Uiso   1.00
C020   C     0.85109   0.26727   0.15482   1.00000  Uiso   1.00
C021   C     0.05004   0.37811   0.15208   1.00000  Uiso   1.00
C022   C     0.14839   0.43414   0.15186   1.00000  Uiso   1.00
C023   C     0.14840   0.54539   0.15195   1.00000  Uiso   1.00
C024   C     0.05002   0.60140   0.15221   1.00000  Uiso   1.00
C025   C     0.24729   0.37859   0.15292   1.00000  Uiso   1.00
C026   C     0.34518   0.43365   0.15413   1.00000  Uiso   1.00
C027   C     0.34518   0.54587   0.15451   1.00000  Uiso   1.00
C028   C     0.24728   0.60094   0.15323   1.00000  Uiso   1.00
C029   C     0.75487   0.43352   0.15516   1.00000  Uiso   1.00
C030   C     0.75486   0.54597   0.15515   1.00000  Uiso   1.00
C031   C     0.85284   0.37861   0.15367   1.00000  Uiso   1.00
C032   C     0.95169   0.43414   0.15222   1.00000  Uiso   1.00
C033   C     0.95170   0.54537   0.15230   1.00000  Uiso   1.00
C034   C     0.85282   0.60089   0.15379   1.00000  Uiso   1.00
C035   C     0.05010   0.71285   0.15358   1.00000  Uiso   1.00
C036   C     0.14996   0.76794   0.15451   1.00000  Uiso   1.00
C037   C     0.05017   0.93416   0.15582   1.00000  Uiso   1.00
C038   C     0.24915   0.71229   0.15452   1.00000  Uiso   1.00
C039   C     0.35042   0.76501   0.15628   1.00000  Uiso   1.00
C040   C     0.35151   0.87757   0.15720   1.00000  Uiso   1.00
C041   C     0.25136   0.93372   0.15655   1.00000  Uiso   1.00
C042   C     0.44853   0.70451   0.15750   1.00000  Uiso   1.00
C043   C     0.55016   0.75949   0.15886   1.00000  Uiso   1.00
C044   C     0.55020   0.87412   0.15901   1.00000  Uiso   1.00
C045   C     0.45164   0.93294   0.15847   1.00000  Uiso   1.00
C046   C     0.65201   0.70439   0.15785   1.00000  Uiso   1.00
C047   C     0.74997   0.76503   0.15673   1.00000  Uiso   1.00
C048   C     0.74890   0.87758   0.15754   1.00000  Uiso   1.00
C049   C     0.64875   0.93298   0.15870   1.00000  Uiso   1.00
C050   C     0.85107   0.71224   0.15497   1.00000  Uiso   1.00
C051   C     0.95030   0.76797   0.15472   1.00000  Uiso   1.00
C052   C     0.84897   0.93371   0.15685   1.00000  Uiso   1.00
C053   C     0.15059   0.87933   0.15567   1.00000  Uiso   1.00
C054   C     0.94972   0.87930   0.15584   1.00000  Uiso   1.00
N001   N     0.44324   0.38376   0.15608   1.00000  Uiso   1.00
N002   N     0.44327   0.59570   0.15709   1.00000  Uiso   1.00
N003   N     0.65736   0.38357   0.15765   1.00000  Uiso   1.00
N004   N     0.65738   0.59595   0.15745   1.00000  Uiso   1.00
N005   N     0.53943   0.48759   0.25943   1.00000  Uiso   1.00
O001   O     0.66332   0.49254   0.31326   1.00000  Uiso   1.00
Fe001  Fe    0.54986   0.48969   0.16984   1.00000  Uiso   1.00
H001   H     0.62882   0.48533   0.35704   1.00000  Uiso   1.00
H002   H     0.50542   0.55168   0.28189   1.00000  Uiso   1.00
H003   H     0.51214   0.41957   0.28068   1.00000  Uiso   1.00
loop_
_geom_bond_atom_site_label_1
_geom_bond_atom_site_label_2
_geom_bond_distance
_geom_bond_site_symmetry_2
_ccdc_geom_bond_type
C001   C002    1.435   .     D
C001   C018    1.435   1_455 S
C001   C037    1.417   1_545 S
C002   C003    1.420   .     S
C002   C005    1.436   .     S
C003   C004    1.431   .     D
C003   C008    1.427   .     S
C004   C019    1.430   1_455 S
C004   C021    1.421   .     S
C005   C006    1.440   .     S
C005   C041    1.428   1_545 D
C006   C007    1.435   .     S
C006   C009    1.435   .     D
C007   C008    1.432   .     S
C007   C012    1.447   .     D
C008   C025    1.420   .     D
C009   C010    1.440   .     S
C009   C045    1.448   1_545 S
C010   C011    1.461   .     D
C010   C013    1.441   .     S
C011   C012    1.449   .     S
C011   C016    1.453   .     S
C012   N001    1.388   .     S
C013   C014    1.436   .     D
C013   C049    1.447   1_545 S
C014   C015    1.434   .     S
C014   C017    1.440   .     S
C015   C016    1.447   .     S
C015   C020    1.430   .     D
C016   N003    1.384   .     D
C017   C018    1.436   .     S
C017   C052    1.429   1_545 D
C018   C001    1.435   1_655 S
C018   C019    1.419   .     D
C019   C004    1.430   1_655 S
C019   C020    1.428   .     S
C020   C031    1.419   .     S
C021   C022    1.420   .     D
C021   C032    1.420   1_455 S
C022   C023    1.418   .     S
C022   C025    1.423   .     S
C023   C024    1.420   .     D
C023   C028    1.423   .     S
C024   C033    1.420   1_455 S
C024   C035    1.421   .     S
C025   C026    1.409   .     S
C026   C027    1.430   .     S
C026   N001    1.380   .     D
C027   C028    1.409   .     S
C027   N002    1.380   .     D
C028   C038    1.420   .     D
C029   C030    1.433   .     S
C029   C031    1.409   .     D
C029   N003    1.374   .     S
C030   C034    1.409   .     S
C030   N004    1.374   .     D
C031   C032    1.423   .     S
C032   C021    1.420   1_655 S
C032   C033    1.418   .     D
C033   C024    1.420   1_655 S
C033   C034    1.423   .     S
C034   C050    1.419   .     D
C035   C036    1.431   .     S
C035   C051    1.430   1_455 D
C036   C038    1.427   .     S
C036   C053    1.420   .     D
C037   C001    1.417   1_565 S
C037   C053    1.435   .     S
C037   C054    1.435   1_455 D
C038   C039    1.432   .     S
C039   C040    1.435   .     S
C039   C042    1.447   .     D
C040   C041    1.440   .     S
C040   C045    1.435   .     D
C041   C005    1.428   1_565 D
C041   C053    1.436   .     S
C042   C043    1.449   .     S
C042   N002    1.388   .     S
C043   C044    1.461   .     S
C043   C046    1.452   .     D
C044   C045    1.441   .     S
C044   C049    1.441   .     D
C045   C009    1.448   1_565 S
C046   C047    1.447   .     S
C046   N004    1.384   .     S
C047   C048    1.434   .     D
C047   C050    1.430   .     S
C048   C049    1.436   .     S
C048   C052    1.439   .     S
C049   C013    1.447   1_565 S
C050   C051    1.428   .     S
C051   C035    1.430   1_655 D
C051   C054    1.419   .     S
C052   C017    1.429   1_565 D
C052   C054    1.436   .     S
C054   C037    1.435   1_655 D
N001   Fe001   1.915   .     S
N002   Fe001   1.913   .     S
N003   Fe001   1.921   .     S
N004   Fe001   1.923   .     S
N005   Fe001   1.797   .     S
N005   H002    1.024   .     S
N005   H003    1.024   .     S
O001   H001    0.980   .     S
