data_e+0.2-opt
_audit_creation_date              2024-12-22
_audit_creation_method            'Materials Studio'
_symmetry_space_group_name_H-M    'P1'
_symmetry_Int_Tables_number       1
_symmetry_cell_setting            triclinic
loop_
_symmetry_equiv_pos_as_xyz
  x,y,z
_cell_length_a                    12.4809
_cell_length_b                    12.7442
_cell_length_c                    19.9998
_cell_angle_alpha                 90.0000
_cell_angle_beta                  90.0000
_cell_angle_gamma                 90.0000
loop_
_atom_site_label
_atom_site_type_symbol
_atom_site_fract_x
_atom_site_fract_y
_atom_site_fract_z
_atom_site_U_iso_or_equiv
_atom_site_adp_type
_atom_site_occupancy
C001   C     0.05028   0.04539   0.15533   1.00000  Uiso   1.00
C002   C     0.15071   0.10022   0.15492   1.00000  Uiso   1.00
C003   C     0.15010   0.21158   0.15349   1.00000  Uiso   1.00
C004   C     0.05026   0.26670   0.15249   1.00000  Uiso   1.00
C005   C     0.25150   0.04585   0.15603   1.00000  Uiso   1.00
C006   C     0.35161   0.10203   0.15704   1.00000  Uiso   1.00
C007   C     0.35054   0.21456   0.15629   1.00000  Uiso   1.00
C008   C     0.24925   0.26725   0.15387   1.00000  Uiso   1.00
C009   C     0.45178   0.04662   0.15876   1.00000  Uiso   1.00
C010   C     0.55031   0.10551   0.15966   1.00000  Uiso   1.00
C011   C     0.55034   0.22021   0.15990   1.00000  Uiso   1.00
C012   C     0.44852   0.27515   0.15853   1.00000  Uiso   1.00
C013   C     0.64885   0.04662   0.15934   1.00000  Uiso   1.00
C014   C     0.74900   0.10207   0.15800   1.00000  Uiso   1.00
C015   C     0.75009   0.21463   0.15720   1.00000  Uiso   1.00
C016   C     0.65220   0.27534   0.15896   1.00000  Uiso   1.00
C017   C     0.84906   0.04587   0.15705   1.00000  Uiso   1.00
C018   C     0.94983   0.10026   0.15558   1.00000  Uiso   1.00
C019   C     0.95044   0.21158   0.15418   1.00000  Uiso   1.00
C020   C     0.85130   0.26730   0.15490   1.00000  Uiso   1.00
C021   C     0.05023   0.37810   0.15088   1.00000  Uiso   1.00
C022   C     0.14853   0.43419   0.15075   1.00000  Uiso   1.00
C023   C     0.14855   0.54548   0.15080   1.00000  Uiso   1.00
C024   C     0.05024   0.60156   0.15097   1.00000  Uiso   1.00
C025   C     0.24737   0.37862   0.15280   1.00000  Uiso   1.00
C026   C     0.34506   0.43377   0.15554   1.00000  Uiso   1.00
C027   C     0.34509   0.54586   0.15573   1.00000  Uiso   1.00
C028   C     0.24739   0.60102   0.15296   1.00000  Uiso   1.00
C029   C     0.75547   0.43374   0.15599   1.00000  Uiso   1.00
C030   C     0.75546   0.54592   0.15609   1.00000  Uiso   1.00
C031   C     0.85312   0.37866   0.15365   1.00000  Uiso   1.00
C032   C     0.95196   0.43421   0.15137   1.00000  Uiso   1.00
C033   C     0.95196   0.54546   0.15141   1.00000  Uiso   1.00
C034   C     0.85312   0.60100   0.15376   1.00000  Uiso   1.00
C035   C     0.05026   0.71296   0.15263   1.00000  Uiso   1.00
C036   C     0.15011   0.76806   0.15365   1.00000  Uiso   1.00
C037   C     0.05028   0.93427   0.15538   1.00000  Uiso   1.00
C038   C     0.24927   0.71240   0.15409   1.00000  Uiso   1.00
C039   C     0.35057   0.76506   0.15653   1.00000  Uiso   1.00
C040   C     0.35163   0.87760   0.15716   1.00000  Uiso   1.00
C041   C     0.25150   0.93378   0.15609   1.00000  Uiso   1.00
C042   C     0.44856   0.70448   0.15889   1.00000  Uiso   1.00
C043   C     0.55035   0.75943   0.16018   1.00000  Uiso   1.00
C044   C     0.55031   0.87414   0.15980   1.00000  Uiso   1.00
C045   C     0.45178   0.93302   0.15883   1.00000  Uiso   1.00
C046   C     0.65219   0.70430   0.15924   1.00000  Uiso   1.00
C047   C     0.75008   0.76501   0.15740   1.00000  Uiso   1.00
C048   C     0.74899   0.87758   0.15811   1.00000  Uiso   1.00
C049   C     0.64884   0.93304   0.15940   1.00000  Uiso   1.00
C050   C     0.85130   0.71236   0.15507   1.00000  Uiso   1.00
C051   C     0.95044   0.76807   0.15432   1.00000  Uiso   1.00
C052   C     0.84906   0.93378   0.15710   1.00000  Uiso   1.00
C053   C     0.15072   0.87943   0.15502   1.00000  Uiso   1.00
C054   C     0.94983   0.87940   0.15567   1.00000  Uiso   1.00
N001   N     0.44338   0.38413   0.15883   1.00000  Uiso   1.00
N002   N     0.44345   0.59544   0.15935   1.00000  Uiso   1.00
N003   N     0.65744   0.38414   0.15923   1.00000  Uiso   1.00
N004   N     0.65743   0.59550   0.15953   1.00000  Uiso   1.00
N005   N     0.54442   0.48685   0.26472   1.00000  Uiso   1.00
O001   O     0.65164   0.48886   0.30113   1.00000  Uiso   1.00
Fe001  Fe    0.55054   0.48976   0.16981   1.00000  Uiso   1.00
H001   H     0.63340   0.48690   0.34880   1.00000  Uiso   1.00
H002   H     0.50318   0.55081   0.28272   1.00000  Uiso   1.00
H003   H     0.50745   0.41926   0.28089   1.00000  Uiso   1.00
loop_
_geom_bond_atom_site_label_1
_geom_bond_atom_site_label_2
_geom_bond_distance
_geom_bond_site_symmetry_2
_ccdc_geom_bond_type
C001   C002    1.435   .     D
C001   C018    1.436   1_455 S
C001   C037    1.416   1_545 S
C002   C003    1.419   .     S
C002   C005    1.436   .     S
C003   C004    1.431   .     D
C003   C008    1.426   .     S
C004   C019    1.431   1_455 S
C004   C021    1.420   .     S
C005   C006    1.440   .     S
C005   C041    1.428   1_545 D
C006   C007    1.434   .     S
C006   C009    1.436   .     D
C007   C008    1.432   .     S
C007   C012    1.447   .     D
C008   C025    1.420   .     D
C009   C010    1.441   .     S
C009   C045    1.448   1_545 S
C010   C011    1.462   .     D
C010   C013    1.441   .     S
C011   C012    1.451   .     S
C011   C016    1.453   .     S
C012   N001    1.390   .     S
C013   C014    1.436   .     D
C013   C049    1.447   1_545 S
C014   C015    1.435   .     S
C014   C017    1.440   .     S
C015   C016    1.446   .     S
C015   C020    1.431   .     D
C016   N003    1.388   .     D
C017   C018    1.436   .     S
C017   C052    1.429   1_545 D
C018   C001    1.436   1_655 S
C018   C019    1.419   .     D
C019   C004    1.431   1_655 S
C019   C020    1.427   .     S
C020   C031    1.420   .     S
C021   C022    1.420   .     D
C021   C032    1.420   1_455 S
C022   C023    1.418   .     S
C022   C025    1.423   .     S
C023   C024    1.420   .     D
C023   C028    1.423   .     S
C024   C033    1.420   1_455 S
C024   C035    1.420   .     S
C025   C026    1.408   .     S
C026   C027    1.429   .     S
C026   N001    1.382   .     D
C027   C028    1.409   .     S
C027   N002    1.383   .     D
C028   C038    1.420   .     D
C029   C030    1.430   .     S
C029   C031    1.407   .     D
C029   N003    1.379   .     S
C030   C034    1.407   .     S
C030   N004    1.379   .     D
C031   C032    1.423   .     S
C032   C021    1.420   1_655 S
C032   C033    1.418   .     D
C033   C024    1.420   1_655 S
C033   C034    1.423   .     S
C034   C050    1.420   .     D
C035   C036    1.431   .     S
C035   C051    1.431   1_455 D
C036   C038    1.427   .     S
C036   C053    1.420   .     D
C037   C001    1.416   1_565 S
C037   C053    1.435   .     S
C037   C054    1.436   1_455 D
C038   C039    1.432   .     S
C039   C040    1.434   .     S
C039   C042    1.447   .     D
C040   C041    1.440   .     S
C040   C045    1.436   .     D
C041   C005    1.428   1_565 D
C041   C053    1.436   .     S
C042   C043    1.451   .     S
C042   N002    1.391   .     S
C043   C044    1.462   .     S
C043   C046    1.452   .     D
C044   C045    1.441   .     S
C044   C049    1.441   .     D
C045   C009    1.448   1_565 S
C046   C047    1.447   .     S
C046   N004    1.388   .     S
C047   C048    1.435   .     D
C047   C050    1.431   .     S
C048   C049    1.436   .     S
C048   C052    1.440   .     S
C049   C013    1.447   1_565 S
C050   C051    1.427   .     S
C051   C035    1.431   1_655 D
C051   C054    1.419   .     S
C052   C017    1.429   1_565 D
C052   C054    1.436   .     S
C054   C037    1.436   1_655 D
N001   Fe001   1.910   .     S
N002   Fe001   1.909   .     S
N003   Fe001   1.907   .     S
N004   Fe001   1.907   .     S
N005   O001    1.524   .     S
N005   Fe001   1.900   .     S
N005   H002    1.029   .     S
N005   H003    1.029   .     S
O001   H001    0.981   .     S
