data_e+0.8-opt
_audit_creation_date              2024-12-22
_audit_creation_method            'Materials Studio'
_symmetry_space_group_name_H-M    'P1'
_symmetry_Int_Tables_number       1
_symmetry_cell_setting            triclinic
loop_
_symmetry_equiv_pos_as_xyz
  x,y,z
_cell_length_a                    12.4809
_cell_length_b                    12.7442
_cell_length_c                    19.9998
_cell_angle_alpha                 90.0000
_cell_angle_beta                  90.0000
_cell_angle_gamma                 90.0000
loop_
_atom_site_label
_atom_site_type_symbol
_atom_site_fract_x
_atom_site_fract_y
_atom_site_fract_z
_atom_site_U_iso_or_equiv
_atom_site_adp_type
_atom_site_occupancy
C001   C     0.05028   0.04544   0.15535   1.00000  Uiso   1.00
C002   C     0.15065   0.10023   0.15494   1.00000  Uiso   1.00
C003   C     0.15003   0.21156   0.15353   1.00000  Uiso   1.00
C004   C     0.05026   0.26664   0.15253   1.00000  Uiso   1.00
C005   C     0.25148   0.04579   0.15604   1.00000  Uiso   1.00
C006   C     0.35162   0.10195   0.15704   1.00000  Uiso   1.00
C007   C     0.35053   0.21462   0.15631   1.00000  Uiso   1.00
C008   C     0.24929   0.26726   0.15390   1.00000  Uiso   1.00
C009   C     0.45166   0.04664   0.15876   1.00000  Uiso   1.00
C010   C     0.55031   0.10561   0.15966   1.00000  Uiso   1.00
C011   C     0.55035   0.22005   0.15992   1.00000  Uiso   1.00
C012   C     0.44845   0.27509   0.15851   1.00000  Uiso   1.00
C013   C     0.64898   0.04663   0.15931   1.00000  Uiso   1.00
C014   C     0.74900   0.10199   0.15797   1.00000  Uiso   1.00
C015   C     0.75009   0.21469   0.15718   1.00000  Uiso   1.00
C016   C     0.65227   0.27527   0.15892   1.00000  Uiso   1.00
C017   C     0.84909   0.04581   0.15703   1.00000  Uiso   1.00
C018   C     0.94991   0.10026   0.15558   1.00000  Uiso   1.00
C019   C     0.95051   0.21157   0.15419   1.00000  Uiso   1.00
C020   C     0.85126   0.26732   0.15489   1.00000  Uiso   1.00
C021   C     0.05024   0.37819   0.15093   1.00000  Uiso   1.00
C022   C     0.14849   0.43425   0.15083   1.00000  Uiso   1.00
C023   C     0.14850   0.54541   0.15088   1.00000  Uiso   1.00
C024   C     0.05024   0.60147   0.15102   1.00000  Uiso   1.00
C025   C     0.24747   0.37856   0.15284   1.00000  Uiso   1.00
C026   C     0.34510   0.43369   0.15548   1.00000  Uiso   1.00
C027   C     0.34512   0.54594   0.15567   1.00000  Uiso   1.00
C028   C     0.24750   0.60109   0.15301   1.00000  Uiso   1.00
C029   C     0.75543   0.43366   0.15588   1.00000  Uiso   1.00
C030   C     0.75542   0.54599   0.15599   1.00000  Uiso   1.00
C031   C     0.85301   0.37859   0.15362   1.00000  Uiso   1.00
C032   C     0.95201   0.43427   0.15140   1.00000  Uiso   1.00
C033   C     0.95200   0.54539   0.15144   1.00000  Uiso   1.00
C034   C     0.85300   0.60106   0.15374   1.00000  Uiso   1.00
C035   C     0.05027   0.71301   0.15267   1.00000  Uiso   1.00
C036   C     0.15004   0.76808   0.15369   1.00000  Uiso   1.00
C037   C     0.05029   0.93420   0.15540   1.00000  Uiso   1.00
C038   C     0.24930   0.71238   0.15413   1.00000  Uiso   1.00
C039   C     0.35056   0.76500   0.15655   1.00000  Uiso   1.00
C040   C     0.35163   0.87768   0.15717   1.00000  Uiso   1.00
C041   C     0.25148   0.93384   0.15610   1.00000  Uiso   1.00
C042   C     0.44847   0.70452   0.15888   1.00000  Uiso   1.00
C043   C     0.55035   0.75958   0.16020   1.00000  Uiso   1.00
C044   C     0.55032   0.87404   0.15980   1.00000  Uiso   1.00
C045   C     0.45166   0.93300   0.15883   1.00000  Uiso   1.00
C046   C     0.65226   0.70436   0.15921   1.00000  Uiso   1.00
C047   C     0.75008   0.76495   0.15738   1.00000  Uiso   1.00
C048   C     0.74899   0.87765   0.15808   1.00000  Uiso   1.00
C049   C     0.64898   0.93302   0.15938   1.00000  Uiso   1.00
C050   C     0.85126   0.71233   0.15506   1.00000  Uiso   1.00
C051   C     0.95051   0.76808   0.15434   1.00000  Uiso   1.00
C052   C     0.84909   0.93383   0.15708   1.00000  Uiso   1.00
C053   C     0.15065   0.87941   0.15504   1.00000  Uiso   1.00
C054   C     0.94991   0.87939   0.15567   1.00000  Uiso   1.00
N001   N     0.44340   0.38414   0.15878   1.00000  Uiso   1.00
N002   N     0.44346   0.59544   0.15931   1.00000  Uiso   1.00
N003   N     0.65743   0.38411   0.15917   1.00000  Uiso   1.00
N004   N     0.65741   0.59550   0.15948   1.00000  Uiso   1.00
N005   N     0.54458   0.48690   0.26475   1.00000  Uiso   1.00
O001   O     0.65163   0.48893   0.30137   1.00000  Uiso   1.00
Fe001  Fe    0.55054   0.48974   0.16969   1.00000  Uiso   1.00
H001   H     0.63309   0.48686   0.34901   1.00000  Uiso   1.00
H002   H     0.50319   0.55087   0.28255   1.00000  Uiso   1.00
H003   H     0.50748   0.41930   0.28072   1.00000  Uiso   1.00
loop_
_geom_bond_atom_site_label_1
_geom_bond_atom_site_label_2
_geom_bond_distance
_geom_bond_site_symmetry_2
_ccdc_geom_bond_type
C001   C002    1.434   .     D
C001   C018    1.434   1_455 S
C001   C037    1.418   1_545 S
C002   C003    1.419   .     S
C002   C005    1.437   .     S
C003   C004    1.430   .     D
C003   C008    1.428   .     S
C004   C019    1.430   1_455 S
C004   C021    1.422   .     S
C005   C006    1.440   .     S
C005   C041    1.427   1_545 D
C006   C007    1.436   .     S
C006   C009    1.434   .     D
C007   C008    1.431   .     S
C007   C012    1.445   .     D
C008   C025    1.419   .     D
C009   C010    1.443   .     S
C009   C045    1.448   1_545 S
C010   C011    1.459   .     D
C010   C013    1.443   .     S
C011   C012    1.453   .     S
C011   C016    1.454   .     S
C012   N001    1.391   .     S
C013   C014    1.434   .     D
C013   C049    1.448   1_545 S
C014   C015    1.436   .     S
C014   C017    1.440   .     S
C015   C016    1.445   .     S
C015   C020    1.431   .     D
C016   N003    1.389   .     D
C017   C018    1.437   .     S
C017   C052    1.427   1_545 D
C018   C001    1.434   1_655 S
C018   C019    1.419   .     D
C019   C004    1.430   1_655 S
C019   C020    1.428   .     S
C020   C031    1.418   .     S
C021   C022    1.419   .     D
C021   C032    1.419   1_455 S
C022   C023    1.417   .     S
C022   C025    1.425   .     S
C023   C024    1.419   .     D
C023   C028    1.425   .     S
C024   C033    1.419   1_455 S
C024   C035    1.422   .     S
C025   C026    1.408   .     S
C026   C027    1.431   .     S
C026   N001    1.381   .     D
C027   C028    1.408   .     S
C027   N002    1.382   .     D
C028   C038    1.419   .     D
C029   C030    1.432   .     S
C029   C031    1.406   .     D
C029   N003    1.378   .     S
C030   C034    1.406   .     S
C030   N004    1.378   .     D
C031   C032    1.425   .     S
C032   C021    1.419   1_655 S
C032   C033    1.416   .     D
C033   C024    1.419   1_655 S
C033   C034    1.426   .     S
C034   C050    1.418   .     D
C035   C036    1.430   .     S
C035   C051    1.430   1_455 D
C036   C038    1.428   .     S
C036   C053    1.419   .     D
C037   C001    1.418   1_565 S
C037   C053    1.434   .     S
C037   C054    1.434   1_455 D
C038   C039    1.432   .     S
C039   C040    1.436   .     S
C039   C042    1.445   .     D
C040   C041    1.441   .     S
C040   C045    1.434   .     D
C041   C005    1.427   1_565 D
C041   C053    1.437   .     S
C042   C043    1.452   .     S
C042   N002    1.392   .     S
C043   C044    1.459   .     S
C043   C046    1.454   .     D
C044   C045    1.443   .     S
C044   C049    1.443   .     D
C045   C009    1.448   1_565 S
C046   C047    1.445   .     S
C046   N004    1.389   .     S
C047   C048    1.436   .     D
C047   C050    1.431   .     S
C048   C049    1.434   .     S
C048   C052    1.440   .     S
C049   C013    1.448   1_565 S
C050   C051    1.428   .     S
C051   C035    1.430   1_655 D
C051   C054    1.419   .     S
C052   C017    1.427   1_565 D
C052   C054    1.437   .     S
C054   C037    1.434   1_655 D
N001   Fe001   1.910   .     S
N002   Fe001   1.909   .     S
N003   Fe001   1.907   .     S
N004   Fe001   1.907   .     S
N005   O001    1.524   .     S
N005   Fe001   1.903   .     S
N005   H002    1.029   .     S
N005   H003    1.029   .     S
O001   H001    0.981   .     S
