data_e+0.6-opt
_audit_creation_date              2024-12-22
_audit_creation_method            'Materials Studio'
_symmetry_space_group_name_H-M    'P1'
_symmetry_Int_Tables_number       1
_symmetry_cell_setting            triclinic
loop_
_symmetry_equiv_pos_as_xyz
  x,y,z
_cell_length_a                    12.4809
_cell_length_b                    12.7442
_cell_length_c                    19.9998
_cell_angle_alpha                 90.0000
_cell_angle_beta                  90.0000
_cell_angle_gamma                 90.0000
loop_
_atom_site_label
_atom_site_type_symbol
_atom_site_fract_x
_atom_site_fract_y
_atom_site_fract_z
_atom_site_U_iso_or_equiv
_atom_site_adp_type
_atom_site_occupancy
C001   C     0.05029   0.04544   0.15536   1.00000  Uiso   1.00
C002   C     0.15068   0.10022   0.15496   1.00000  Uiso   1.00
C003   C     0.15006   0.21157   0.15355   1.00000  Uiso   1.00
C004   C     0.05026   0.26663   0.15256   1.00000  Uiso   1.00
C005   C     0.25150   0.04581   0.15606   1.00000  Uiso   1.00
C006   C     0.35163   0.10196   0.15706   1.00000  Uiso   1.00
C007   C     0.35055   0.21462   0.15632   1.00000  Uiso   1.00
C008   C     0.24928   0.26725   0.15393   1.00000  Uiso   1.00
C009   C     0.45173   0.04665   0.15876   1.00000  Uiso   1.00
C010   C     0.55032   0.10556   0.15964   1.00000  Uiso   1.00
C011   C     0.55035   0.22014   0.15989   1.00000  Uiso   1.00
C012   C     0.44849   0.27511   0.15849   1.00000  Uiso   1.00
C013   C     0.64892   0.04665   0.15930   1.00000  Uiso   1.00
C014   C     0.74900   0.10200   0.15796   1.00000  Uiso   1.00
C015   C     0.75009   0.21469   0.15716   1.00000  Uiso   1.00
C016   C     0.65224   0.27529   0.15889   1.00000  Uiso   1.00
C017   C     0.84908   0.04584   0.15702   1.00000  Uiso   1.00
C018   C     0.94988   0.10025   0.15558   1.00000  Uiso   1.00
C019   C     0.95049   0.21158   0.15420   1.00000  Uiso   1.00
C020   C     0.85128   0.26731   0.15488   1.00000  Uiso   1.00
C021   C     0.05024   0.37817   0.15097   1.00000  Uiso   1.00
C022   C     0.14851   0.43421   0.15088   1.00000  Uiso   1.00
C023   C     0.14852   0.54544   0.15093   1.00000  Uiso   1.00
C024   C     0.05024   0.60148   0.15105   1.00000  Uiso   1.00
C025   C     0.24742   0.37858   0.15288   1.00000  Uiso   1.00
C026   C     0.34508   0.43371   0.15551   1.00000  Uiso   1.00
C027   C     0.34509   0.54592   0.15571   1.00000  Uiso   1.00
C028   C     0.24744   0.60106   0.15305   1.00000  Uiso   1.00
C029   C     0.75545   0.43367   0.15586   1.00000  Uiso   1.00
C030   C     0.75545   0.54597   0.15596   1.00000  Uiso   1.00
C031   C     0.85308   0.37862   0.15361   1.00000  Uiso   1.00
C032   C     0.95199   0.43422   0.15141   1.00000  Uiso   1.00
C033   C     0.95200   0.54543   0.15145   1.00000  Uiso   1.00
C034   C     0.85307   0.60103   0.15372   1.00000  Uiso   1.00
C035   C     0.05027   0.71301   0.15270   1.00000  Uiso   1.00
C036   C     0.15007   0.76807   0.15372   1.00000  Uiso   1.00
C037   C     0.05029   0.93421   0.15541   1.00000  Uiso   1.00
C038   C     0.24929   0.71238   0.15416   1.00000  Uiso   1.00
C039   C     0.35058   0.76499   0.15657   1.00000  Uiso   1.00
C040   C     0.35164   0.87766   0.15718   1.00000  Uiso   1.00
C041   C     0.25151   0.93381   0.15612   1.00000  Uiso   1.00
C042   C     0.44852   0.70451   0.15887   1.00000  Uiso   1.00
C043   C     0.55035   0.75949   0.16017   1.00000  Uiso   1.00
C044   C     0.55032   0.87408   0.15979   1.00000  Uiso   1.00
C045   C     0.45173   0.93298   0.15884   1.00000  Uiso   1.00
C046   C     0.65223   0.70434   0.15917   1.00000  Uiso   1.00
C047   C     0.75008   0.76495   0.15736   1.00000  Uiso   1.00
C048   C     0.74899   0.87764   0.15807   1.00000  Uiso   1.00
C049   C     0.64892   0.93300   0.15937   1.00000  Uiso   1.00
C050   C     0.85128   0.71234   0.15505   1.00000  Uiso   1.00
C051   C     0.95049   0.76807   0.15434   1.00000  Uiso   1.00
C052   C     0.84907   0.93381   0.15708   1.00000  Uiso   1.00
C053   C     0.15068   0.87942   0.15506   1.00000  Uiso   1.00
C054   C     0.94989   0.87940   0.15567   1.00000  Uiso   1.00
N001   N     0.44338   0.38416   0.15875   1.00000  Uiso   1.00
N002   N     0.44344   0.59540   0.15928   1.00000  Uiso   1.00
N003   N     0.65747   0.38415   0.15912   1.00000  Uiso   1.00
N004   N     0.65745   0.59547   0.15941   1.00000  Uiso   1.00
N005   N     0.54439   0.48692   0.26449   1.00000  Uiso   1.00
O001   O     0.65184   0.48901   0.30156   1.00000  Uiso   1.00
Fe001  Fe    0.55055   0.48975   0.16977   1.00000  Uiso   1.00
H001   H     0.63283   0.48683   0.34913   1.00000  Uiso   1.00
H002   H     0.50317   0.55090   0.28244   1.00000  Uiso   1.00
H003   H     0.50750   0.41930   0.28062   1.00000  Uiso   1.00
loop_
_geom_bond_atom_site_label_1
_geom_bond_atom_site_label_2
_geom_bond_distance
_geom_bond_site_symmetry_2
_ccdc_geom_bond_type
C001   C002    1.434   .     D
C001   C018    1.435   1_455 S
C001   C037    1.417   1_545 S
C002   C003    1.419   .     S
C002   C005    1.437   .     S
C003   C004    1.430   .     D
C003   C008    1.427   .     S
C004   C019    1.430   1_455 S
C004   C021    1.422   .     S
C005   C006    1.440   .     S
C005   C041    1.427   1_545 D
C006   C007    1.436   .     S
C006   C009    1.435   .     D
C007   C008    1.432   .     S
C007   C012    1.446   .     D
C008   C025    1.419   .     D
C009   C010    1.442   .     S
C009   C045    1.449   1_545 S
C010   C011    1.460   .     D
C010   C013    1.442   .     S
C011   C012    1.452   .     S
C011   C016    1.453   .     S
C012   N001    1.391   .     S
C013   C014    1.435   .     D
C013   C049    1.448   1_545 S
C014   C015    1.436   .     S
C014   C017    1.440   .     S
C015   C016    1.445   .     S
C015   C020    1.431   .     D
C016   N003    1.389   .     D
C017   C018    1.437   .     S
C017   C052    1.428   1_545 D
C018   C001    1.435   1_655 S
C018   C019    1.419   .     D
C019   C004    1.430   1_655 S
C019   C020    1.428   .     S
C020   C031    1.419   .     S
C021   C022    1.419   .     D
C021   C032    1.419   1_455 S
C022   C023    1.418   .     S
C022   C025    1.424   .     S
C023   C024    1.419   .     D
C023   C028    1.424   .     S
C024   C033    1.419   1_455 S
C024   C035    1.422   .     S
C025   C026    1.408   .     S
C026   C027    1.430   .     S
C026   N001    1.381   .     D
C027   C028    1.408   .     S
C027   N002    1.382   .     D
C028   C038    1.419   .     D
C029   C030    1.431   .     S
C029   C031    1.407   .     D
C029   N003    1.378   .     S
C030   C034    1.407   .     S
C030   N004    1.378   .     D
C031   C032    1.424   .     S
C032   C021    1.419   1_655 S
C032   C033    1.417   .     D
C033   C024    1.419   1_655 S
C033   C034    1.424   .     S
C034   C050    1.419   .     D
C035   C036    1.430   .     S
C035   C051    1.430   1_455 D
C036   C038    1.427   .     S
C036   C053    1.419   .     D
C037   C001    1.417   1_565 S
C037   C053    1.434   .     S
C037   C054    1.435   1_455 D
C038   C039    1.432   .     S
C039   C040    1.436   .     S
C039   C042    1.446   .     D
C040   C041    1.440   .     S
C040   C045    1.435   .     D
C041   C005    1.427   1_565 D
C041   C053    1.437   .     S
C042   C043    1.452   .     S
C042   N002    1.392   .     S
C043   C044    1.460   .     S
C043   C046    1.453   .     D
C044   C045    1.442   .     S
C044   C049    1.442   .     D
C045   C009    1.449   1_565 S
C046   C047    1.445   .     S
C046   N004    1.389   .     S
C047   C048    1.436   .     D
C047   C050    1.431   .     S
C048   C049    1.435   .     S
C048   C052    1.440   .     S
C049   C013    1.448   1_565 S
C050   C051    1.428   .     S
C051   C035    1.430   1_655 D
C051   C054    1.419   .     S
C052   C017    1.428   1_565 D
C052   C054    1.437   .     S
C054   C037    1.435   1_655 D
N001   Fe001   1.910   .     S
N002   Fe001   1.909   .     S
N003   Fe001   1.907   .     S
N004   Fe001   1.908   .     S
N005   O001    1.533   .     S
N005   Fe001   1.896   .     S
N005   H002    1.029   .     S
N005   H003    1.029   .     S
O001   H001    0.981   .     S
