data_e+1.0-opt
_audit_creation_date              2024-12-22
_audit_creation_method            'Materials Studio'
_symmetry_space_group_name_H-M    'P1'
_symmetry_Int_Tables_number       1
_symmetry_cell_setting            triclinic
loop_
_symmetry_equiv_pos_as_xyz
  x,y,z
_cell_length_a                    12.4809
_cell_length_b                    12.7442
_cell_length_c                    19.9998
_cell_angle_alpha                 90.0000
_cell_angle_beta                  90.0000
_cell_angle_gamma                 90.0000
loop_
_atom_site_label
_atom_site_type_symbol
_atom_site_fract_x
_atom_site_fract_y
_atom_site_fract_z
_atom_site_U_iso_or_equiv
_atom_site_adp_type
_atom_site_occupancy
C001   C     0.05028   0.04542   0.15534   1.00000  Uiso   1.00
C002   C     0.15061   0.10024   0.15492   1.00000  Uiso   1.00
C003   C     0.15000   0.21152   0.15349   1.00000  Uiso   1.00
C004   C     0.05025   0.26660   0.15249   1.00000  Uiso   1.00
C005   C     0.25146   0.04577   0.15602   1.00000  Uiso   1.00
C006   C     0.35160   0.10191   0.15703   1.00000  Uiso   1.00
C007   C     0.35048   0.21458   0.15628   1.00000  Uiso   1.00
C008   C     0.24926   0.26726   0.15386   1.00000  Uiso   1.00
C009   C     0.45160   0.04663   0.15876   1.00000  Uiso   1.00
C010   C     0.55031   0.10566   0.15966   1.00000  Uiso   1.00
C011   C     0.55034   0.22001   0.15994   1.00000  Uiso   1.00
C012   C     0.44838   0.27507   0.15854   1.00000  Uiso   1.00
C013   C     0.64901   0.04663   0.15934   1.00000  Uiso   1.00
C014   C     0.74901   0.10195   0.15800   1.00000  Uiso   1.00
C015   C     0.75013   0.21465   0.15721   1.00000  Uiso   1.00
C016   C     0.65233   0.27524   0.15898   1.00000  Uiso   1.00
C017   C     0.84910   0.04578   0.15705   1.00000  Uiso   1.00
C018   C     0.94993   0.10027   0.15558   1.00000  Uiso   1.00
C019   C     0.95053   0.21152   0.15418   1.00000  Uiso   1.00
C020   C     0.85128   0.26732   0.15490   1.00000  Uiso   1.00
C021   C     0.05024   0.37824   0.15087   1.00000  Uiso   1.00
C022   C     0.14845   0.43426   0.15075   1.00000  Uiso   1.00
C023   C     0.14847   0.54540   0.15080   1.00000  Uiso   1.00
C024   C     0.05024   0.60142   0.15095   1.00000  Uiso   1.00
C025   C     0.24748   0.37852   0.15276   1.00000  Uiso   1.00
C026   C     0.34509   0.43358   0.15547   1.00000  Uiso   1.00
C027   C     0.34512   0.54605   0.15566   1.00000  Uiso   1.00
C028   C     0.24749   0.60113   0.15292   1.00000  Uiso   1.00
C029   C     0.75543   0.43355   0.15596   1.00000  Uiso   1.00
C030   C     0.75542   0.54610   0.15608   1.00000  Uiso   1.00
C031   C     0.85300   0.37856   0.15363   1.00000  Uiso   1.00
C032   C     0.95204   0.43428   0.15137   1.00000  Uiso   1.00
C033   C     0.95204   0.54539   0.15141   1.00000  Uiso   1.00
C034   C     0.85300   0.60110   0.15374   1.00000  Uiso   1.00
C035   C     0.05026   0.71306   0.15263   1.00000  Uiso   1.00
C036   C     0.15001   0.76812   0.15365   1.00000  Uiso   1.00
C037   C     0.05028   0.93424   0.15539   1.00000  Uiso   1.00
C038   C     0.24928   0.71239   0.15408   1.00000  Uiso   1.00
C039   C     0.35051   0.76504   0.15652   1.00000  Uiso   1.00
C040   C     0.35161   0.87773   0.15715   1.00000  Uiso   1.00
C041   C     0.25146   0.93387   0.15608   1.00000  Uiso   1.00
C042   C     0.44841   0.70456   0.15890   1.00000  Uiso   1.00
C043   C     0.55034   0.75963   0.16022   1.00000  Uiso   1.00
C044   C     0.55031   0.87399   0.15980   1.00000  Uiso   1.00
C045   C     0.45161   0.93301   0.15883   1.00000  Uiso   1.00
C046   C     0.65232   0.70439   0.15926   1.00000  Uiso   1.00
C047   C     0.75013   0.76499   0.15740   1.00000  Uiso   1.00
C048   C     0.74900   0.87770   0.15810   1.00000  Uiso   1.00
C049   C     0.64901   0.93303   0.15940   1.00000  Uiso   1.00
C050   C     0.85128   0.71234   0.15507   1.00000  Uiso   1.00
C051   C     0.95054   0.76813   0.15433   1.00000  Uiso   1.00
C052   C     0.84910   0.93387   0.15710   1.00000  Uiso   1.00
C053   C     0.15062   0.87941   0.15502   1.00000  Uiso   1.00
C054   C     0.94993   0.87939   0.15567   1.00000  Uiso   1.00
N001   N     0.44324   0.38405   0.15894   1.00000  Uiso   1.00
N002   N     0.44329   0.59554   0.15945   1.00000  Uiso   1.00
N003   N     0.65758   0.38403   0.15934   1.00000  Uiso   1.00
N004   N     0.65756   0.59559   0.15965   1.00000  Uiso   1.00
N005   N     0.54466   0.48686   0.26487   1.00000  Uiso   1.00
O001   O     0.65148   0.48884   0.30108   1.00000  Uiso   1.00
Fe001  Fe    0.55054   0.48973   0.16954   1.00000  Uiso   1.00
H001   H     0.63344   0.48691   0.34880   1.00000  Uiso   1.00
H002   H     0.50323   0.55079   0.28271   1.00000  Uiso   1.00
H003   H     0.50748   0.41929   0.28086   1.00000  Uiso   1.00
loop_
_geom_bond_atom_site_label_1
_geom_bond_atom_site_label_2
_geom_bond_distance
_geom_bond_site_symmetry_2
_ccdc_geom_bond_type
C001   C002    1.434   .     D
C001   C018    1.434   1_455 S
C001   C037    1.417   1_545 S
C002   C003    1.418   .     S
C002   C005    1.438   .     S
C003   C004    1.429   .     D
C003   C008    1.428   .     S
C004   C019    1.429   1_455 S
C004   C021    1.423   .     S
C005   C006    1.440   .     S
C005   C041    1.426   1_545 D
C006   C007    1.436   .     S
C006   C009    1.434   .     D
C007   C008    1.431   .     S
C007   C012    1.445   .     D
C008   C025    1.418   .     D
C009   C010    1.444   .     S
C009   C045    1.448   1_545 S
C010   C011    1.457   .     D
C010   C013    1.444   .     S
C011   C012    1.453   .     S
C011   C016    1.455   .     S
C012   N001    1.390   .     S
C013   C014    1.434   .     D
C013   C049    1.448   1_545 S
C014   C015    1.436   .     S
C014   C017    1.440   .     S
C015   C016    1.445   .     S
C015   C020    1.431   .     D
C016   N003    1.388   .     D
C017   C018    1.438   .     S
C017   C052    1.426   1_545 D
C018   C001    1.434   1_655 S
C018   C019    1.418   .     D
C019   C004    1.429   1_655 S
C019   C020    1.428   .     S
C020   C031    1.418   .     S
C021   C022    1.419   .     D
C021   C032    1.418   1_455 S
C022   C023    1.416   .     S
C022   C025    1.426   .     S
C023   C024    1.419   .     D
C023   C028    1.426   .     S
C024   C033    1.418   1_455 S
C024   C035    1.423   .     S
C025   C026    1.407   .     S
C026   C027    1.433   .     S
C026   N001    1.380   .     D
C027   C028    1.407   .     S
C027   N002    1.380   .     D
C028   C038    1.418   .     D
C029   C030    1.434   .     S
C029   C031    1.406   .     D
C029   N003    1.376   .     S
C030   C034    1.406   .     S
C030   N004    1.376   .     D
C031   C032    1.426   .     S
C032   C021    1.418   1_655 S
C032   C033    1.416   .     D
C033   C024    1.418   1_655 S
C033   C034    1.426   .     S
C034   C050    1.418   .     D
C035   C036    1.429   .     S
C035   C051    1.429   1_455 D
C036   C038    1.428   .     S
C036   C053    1.419   .     D
C037   C001    1.417   1_565 S
C037   C053    1.434   .     S
C037   C054    1.434   1_455 D
C038   C039    1.431   .     S
C039   C040    1.436   .     S
C039   C042    1.445   .     D
C040   C041    1.440   .     S
C040   C045    1.434   .     D
C041   C005    1.426   1_565 D
C041   C053    1.437   .     S
C042   C043    1.453   .     S
C042   N002    1.391   .     S
C043   C044    1.457   .     S
C043   C046    1.455   .     D
C044   C045    1.443   .     S
C044   C049    1.444   .     D
C045   C009    1.448   1_565 S
C046   C047    1.445   .     S
C046   N004    1.388   .     S
C047   C048    1.437   .     D
C047   C050    1.430   .     S
C048   C049    1.434   .     S
C048   C052    1.440   .     S
C049   C013    1.448   1_565 S
C050   C051    1.428   .     S
C051   C035    1.429   1_655 D
C051   C054    1.418   .     S
C052   C017    1.426   1_565 D
C052   C054    1.438   .     S
C054   C037    1.434   1_655 D
N001   Fe001   1.911   .     S
N002   Fe001   1.911   .     S
N003   Fe001   1.908   .     S
N004   Fe001   1.909   .     S
N005   O001    1.517   .     S
N005   Fe001   1.908   .     S
N005   H002    1.029   .     S
N005   H003    1.029   .     S
O001   H001    0.981   .     S
