data_e-0.6-opt
_audit_creation_date              2024-12-22
_audit_creation_method            'Materials Studio'
_symmetry_space_group_name_H-M    'P1'
_symmetry_Int_Tables_number       1
_symmetry_cell_setting            triclinic
loop_
_symmetry_equiv_pos_as_xyz
  x,y,z
_cell_length_a                    12.4809
_cell_length_b                    12.7442
_cell_length_c                    19.9998
_cell_angle_alpha                 90.0000
_cell_angle_beta                  90.0000
_cell_angle_gamma                 90.0000
loop_
_atom_site_label
_atom_site_type_symbol
_atom_site_fract_x
_atom_site_fract_y
_atom_site_fract_z
_atom_site_U_iso_or_equiv
_atom_site_adp_type
_atom_site_occupancy
C001   C     0.05028   0.04541   0.15532   1.00000  Uiso   1.00
C002   C     0.15070   0.10021   0.15491   1.00000  Uiso   1.00
C003   C     0.15009   0.21157   0.15348   1.00000  Uiso   1.00
C004   C     0.05026   0.26664   0.15246   1.00000  Uiso   1.00
C005   C     0.25152   0.04584   0.15602   1.00000  Uiso   1.00
C006   C     0.35164   0.10201   0.15701   1.00000  Uiso   1.00
C007   C     0.35060   0.21464   0.15627   1.00000  Uiso   1.00
C008   C     0.24926   0.26724   0.15388   1.00000  Uiso   1.00
C009   C     0.45175   0.04663   0.15871   1.00000  Uiso   1.00
C010   C     0.55031   0.10554   0.15958   1.00000  Uiso   1.00
C011   C     0.55034   0.22021   0.15978   1.00000  Uiso   1.00
C012   C     0.44851   0.27517   0.15848   1.00000  Uiso   1.00
C013   C     0.64888   0.04663   0.15927   1.00000  Uiso   1.00
C014   C     0.74897   0.10205   0.15796   1.00000  Uiso   1.00
C015   C     0.75003   0.21471   0.15718   1.00000  Uiso   1.00
C016   C     0.65220   0.27534   0.15896   1.00000  Uiso   1.00
C017   C     0.84905   0.04586   0.15701   1.00000  Uiso   1.00
C018   C     0.94985   0.10024   0.15555   1.00000  Uiso   1.00
C019   C     0.95045   0.21157   0.15415   1.00000  Uiso   1.00
C020   C     0.85130   0.26729   0.15488   1.00000  Uiso   1.00
C021   C     0.05025   0.37812   0.15089   1.00000  Uiso   1.00
C022   C     0.14853   0.43419   0.15077   1.00000  Uiso   1.00
C023   C     0.14853   0.54547   0.15082   1.00000  Uiso   1.00
C024   C     0.05025   0.60154   0.15097   1.00000  Uiso   1.00
C025   C     0.24741   0.37860   0.15282   1.00000  Uiso   1.00
C026   C     0.34504   0.43377   0.15551   1.00000  Uiso   1.00
C027   C     0.34505   0.54587   0.15569   1.00000  Uiso   1.00
C028   C     0.24744   0.60104   0.15299   1.00000  Uiso   1.00
C029   C     0.75554   0.43375   0.15610   1.00000  Uiso   1.00
C030   C     0.75554   0.54591   0.15621   1.00000  Uiso   1.00
C031   C     0.85311   0.37864   0.15367   1.00000  Uiso   1.00
C032   C     0.95199   0.43421   0.15136   1.00000  Uiso   1.00
C033   C     0.95200   0.54545   0.15140   1.00000  Uiso   1.00
C034   C     0.85309   0.60102   0.15379   1.00000  Uiso   1.00
C035   C     0.05027   0.71300   0.15261   1.00000  Uiso   1.00
C036   C     0.15010   0.76808   0.15365   1.00000  Uiso   1.00
C037   C     0.05028   0.93424   0.15537   1.00000  Uiso   1.00
C038   C     0.24927   0.71240   0.15410   1.00000  Uiso   1.00
C039   C     0.35063   0.76498   0.15652   1.00000  Uiso   1.00
C040   C     0.35165   0.87762   0.15714   1.00000  Uiso   1.00
C041   C     0.25152   0.93379   0.15607   1.00000  Uiso   1.00
C042   C     0.44854   0.70446   0.15884   1.00000  Uiso   1.00
C043   C     0.55034   0.75943   0.16007   1.00000  Uiso   1.00
C044   C     0.55032   0.87410   0.15972   1.00000  Uiso   1.00
C045   C     0.45176   0.93301   0.15878   1.00000  Uiso   1.00
C046   C     0.65219   0.70430   0.15925   1.00000  Uiso   1.00
C047   C     0.75002   0.76494   0.15738   1.00000  Uiso   1.00
C048   C     0.74897   0.87759   0.15807   1.00000  Uiso   1.00
C049   C     0.64888   0.93302   0.15934   1.00000  Uiso   1.00
C050   C     0.85130   0.71236   0.15505   1.00000  Uiso   1.00
C051   C     0.95045   0.76808   0.15429   1.00000  Uiso   1.00
C052   C     0.84905   0.93379   0.15706   1.00000  Uiso   1.00
C053   C     0.15071   0.87943   0.15502   1.00000  Uiso   1.00
C054   C     0.94985   0.87941   0.15565   1.00000  Uiso   1.00
N001   N     0.44351   0.38436   0.15873   1.00000  Uiso   1.00
N002   N     0.44357   0.59522   0.15920   1.00000  Uiso   1.00
N003   N     0.65733   0.38435   0.15916   1.00000  Uiso   1.00
N004   N     0.65730   0.59527   0.15949   1.00000  Uiso   1.00
N005   N     0.54551   0.48684   0.26662   1.00000  Uiso   1.00
O001   O     0.64977   0.48883   0.30005   1.00000  Uiso   1.00
Fe001  Fe    0.55064   0.48976   0.16940   1.00000  Uiso   1.00
H001   H     0.63442   0.48700   0.34825   1.00000  Uiso   1.00
H002   H     0.50289   0.55066   0.28344   1.00000  Uiso   1.00
H003   H     0.50710   0.41943   0.28162   1.00000  Uiso   1.00
loop_
_geom_bond_atom_site_label_1
_geom_bond_atom_site_label_2
_geom_bond_distance
_geom_bond_site_symmetry_2
_ccdc_geom_bond_type
C001   C002    1.435   .     D
C001   C018    1.435   1_455 S
C001   C037    1.417   1_545 S
C002   C003    1.419   .     S
C002   C005    1.437   .     S
C003   C004    1.430   .     D
C003   C008    1.427   .     S
C004   C019    1.430   1_455 S
C004   C021    1.421   .     S
C005   C006    1.440   .     S
C005   C041    1.428   1_545 D
C006   C007    1.435   .     S
C006   C009    1.435   .     D
C007   C008    1.432   .     S
C007   C012    1.446   .     D
C008   C025    1.420   .     D
C009   C010    1.441   .     S
C009   C045    1.448   1_545 S
C010   C011    1.461   .     D
C010   C013    1.441   .     S
C011   C012    1.451   .     S
C011   C016    1.453   .     S
C012   N001    1.393   .     S
C013   C014    1.435   .     D
C013   C049    1.448   1_545 S
C014   C015    1.436   .     S
C014   C017    1.440   .     S
C015   C016    1.445   .     S
C015   C020    1.431   .     D
C016   N003    1.391   .     D
C017   C018    1.437   .     S
C017   C052    1.428   1_545 D
C018   C001    1.435   1_655 S
C018   C019    1.419   .     D
C019   C004    1.430   1_655 S
C019   C020    1.427   .     S
C020   C031    1.420   .     S
C021   C022    1.420   .     D
C021   C032    1.419   1_455 S
C022   C023    1.418   .     S
C022   C025    1.424   .     S
C023   C024    1.420   .     D
C023   C028    1.424   .     S
C024   C033    1.419   1_455 S
C024   C035    1.421   .     S
C025   C026    1.408   .     S
C026   C027    1.429   .     S
C026   N001    1.382   .     D
C027   C028    1.408   .     S
C027   N002    1.383   .     D
C028   C038    1.419   .     D
C029   C030    1.429   .     S
C029   C031    1.407   .     D
C029   N003    1.379   .     S
C030   C034    1.406   .     S
C030   N004    1.380   .     D
C031   C032    1.424   .     S
C032   C021    1.419   1_655 S
C032   C033    1.418   .     D
C033   C024    1.419   1_655 S
C033   C034    1.424   .     S
C034   C050    1.419   .     D
C035   C036    1.430   .     S
C035   C051    1.430   1_455 D
C036   C038    1.427   .     S
C036   C053    1.419   .     D
C037   C001    1.417   1_565 S
C037   C053    1.435   .     S
C037   C054    1.435   1_455 D
C038   C039    1.432   .     S
C039   C040    1.436   .     S
C039   C042    1.446   .     D
C040   C041    1.440   .     S
C040   C045    1.435   .     D
C041   C005    1.428   1_565 D
C041   C053    1.437   .     S
C042   C043    1.451   .     S
C042   N002    1.393   .     S
C043   C044    1.461   .     S
C043   C046    1.452   .     D
C044   C045    1.441   .     S
C044   C049    1.441   .     D
C045   C009    1.448   1_565 S
C046   C047    1.445   .     S
C046   N004    1.391   .     S
C047   C048    1.436   .     D
C047   C050    1.432   .     S
C048   C049    1.435   .     S
C048   C052    1.440   .     S
C049   C013    1.448   1_565 S
C050   C051    1.427   .     S
C051   C035    1.430   1_655 D
C051   C054    1.419   .     S
C052   C017    1.428   1_565 D
C052   C054    1.437   .     S
C054   C037    1.435   1_655 D
N001   Fe001   1.907   .     S
N002   Fe001   1.906   .     S
N003   Fe001   1.902   .     S
N004   Fe001   1.902   .     S
N005   O001    1.463   .     S
N005   Fe001   1.946   .     S
N005   H002    1.028   .     S
N005   H003    1.029   .     S
O001   H001    0.983   .     S
