data_e+0.0-opt
_audit_creation_date              2024-12-22
_audit_creation_method            'Materials Studio'
_symmetry_space_group_name_H-M    'P1'
_symmetry_Int_Tables_number       1
_symmetry_cell_setting            triclinic
loop_
_symmetry_equiv_pos_as_xyz
  x,y,z
_cell_length_a                    12.4809
_cell_length_b                    12.7442
_cell_length_c                    19.9998
_cell_angle_alpha                 90.0000
_cell_angle_beta                  90.0000
_cell_angle_gamma                 90.0000
loop_
_atom_site_label
_atom_site_type_symbol
_atom_site_fract_x
_atom_site_fract_y
_atom_site_fract_z
_atom_site_U_iso_or_equiv
_atom_site_adp_type
_atom_site_occupancy
C001   C     0.05027   0.04538   0.15533   1.00000  Uiso   1.00
C002   C     0.15070   0.10023   0.15490   1.00000  Uiso   1.00
C003   C     0.15009   0.21158   0.15344   1.00000  Uiso   1.00
C004   C     0.05025   0.26671   0.15244   1.00000  Uiso   1.00
C005   C     0.25148   0.04585   0.15601   1.00000  Uiso   1.00
C006   C     0.35160   0.10204   0.15702   1.00000  Uiso   1.00
C007   C     0.35054   0.21456   0.15626   1.00000  Uiso   1.00
C008   C     0.24923   0.26724   0.15381   1.00000  Uiso   1.00
C009   C     0.45177   0.04661   0.15877   1.00000  Uiso   1.00
C010   C     0.55029   0.10551   0.15967   1.00000  Uiso   1.00
C011   C     0.55033   0.22022   0.15991   1.00000  Uiso   1.00
C012   C     0.44851   0.27516   0.15853   1.00000  Uiso   1.00
C013   C     0.64884   0.04661   0.15936   1.00000  Uiso   1.00
C014   C     0.74898   0.10208   0.15803   1.00000  Uiso   1.00
C015   C     0.75006   0.21464   0.15725   1.00000  Uiso   1.00
C016   C     0.65218   0.27534   0.15901   1.00000  Uiso   1.00
C017   C     0.84905   0.04588   0.15708   1.00000  Uiso   1.00
C018   C     0.94982   0.10026   0.15558   1.00000  Uiso   1.00
C019   C     0.95042   0.21158   0.15417   1.00000  Uiso   1.00
C020   C     0.85130   0.26730   0.15492   1.00000  Uiso   1.00
C021   C     0.05023   0.37809   0.15082   1.00000  Uiso   1.00
C022   C     0.14853   0.43419   0.15065   1.00000  Uiso   1.00
C023   C     0.14855   0.54548   0.15070   1.00000  Uiso   1.00
C024   C     0.05023   0.60158   0.15090   1.00000  Uiso   1.00
C025   C     0.24737   0.37862   0.15272   1.00000  Uiso   1.00
C026   C     0.34504   0.43379   0.15549   1.00000  Uiso   1.00
C027   C     0.34507   0.54585   0.15567   1.00000  Uiso   1.00
C028   C     0.24738   0.60103   0.15288   1.00000  Uiso   1.00
C029   C     0.75549   0.43376   0.15607   1.00000  Uiso   1.00
C030   C     0.75548   0.54590   0.15618   1.00000  Uiso   1.00
C031   C     0.85311   0.37866   0.15367   1.00000  Uiso   1.00
C032   C     0.95195   0.43421   0.15134   1.00000  Uiso   1.00
C033   C     0.95194   0.54546   0.15138   1.00000  Uiso   1.00
C034   C     0.85311   0.60100   0.15378   1.00000  Uiso   1.00
C035   C     0.05025   0.71296   0.15258   1.00000  Uiso   1.00
C036   C     0.15010   0.76807   0.15360   1.00000  Uiso   1.00
C037   C     0.05027   0.93427   0.15537   1.00000  Uiso   1.00
C038   C     0.24925   0.71240   0.15403   1.00000  Uiso   1.00
C039   C     0.35057   0.76506   0.15650   1.00000  Uiso   1.00
C040   C     0.35161   0.87759   0.15714   1.00000  Uiso   1.00
C041   C     0.25149   0.93379   0.15607   1.00000  Uiso   1.00
C042   C     0.44854   0.70447   0.15889   1.00000  Uiso   1.00
C043   C     0.55033   0.75943   0.16019   1.00000  Uiso   1.00
C044   C     0.55030   0.87414   0.15981   1.00000  Uiso   1.00
C045   C     0.45177   0.93304   0.15883   1.00000  Uiso   1.00
C046   C     0.65217   0.70430   0.15929   1.00000  Uiso   1.00
C047   C     0.75005   0.76501   0.15744   1.00000  Uiso   1.00
C048   C     0.74898   0.87757   0.15814   1.00000  Uiso   1.00
C049   C     0.64883   0.93305   0.15943   1.00000  Uiso   1.00
C050   C     0.85129   0.71237   0.15509   1.00000  Uiso   1.00
C051   C     0.95042   0.76808   0.15431   1.00000  Uiso   1.00
C052   C     0.84905   0.93378   0.15712   1.00000  Uiso   1.00
C053   C     0.15071   0.87943   0.15500   1.00000  Uiso   1.00
C054   C     0.94982   0.87940   0.15568   1.00000  Uiso   1.00
N001   N     0.44342   0.38419   0.15884   1.00000  Uiso   1.00
N002   N     0.44349   0.59539   0.15934   1.00000  Uiso   1.00
N003   N     0.65740   0.38418   0.15926   1.00000  Uiso   1.00
N004   N     0.65738   0.59545   0.15957   1.00000  Uiso   1.00
N005   N     0.54510   0.48680   0.26546   1.00000  Uiso   1.00
O001   O     0.65099   0.48875   0.30076   1.00000  Uiso   1.00
Fe001  Fe    0.55060   0.48976   0.16967   1.00000  Uiso   1.00
H001   H     0.63377   0.48695   0.34862   1.00000  Uiso   1.00
H002   H     0.50327   0.55072   0.28294   1.00000  Uiso   1.00
H003   H     0.50749   0.41926   0.28108   1.00000  Uiso   1.00
loop_
_geom_bond_atom_site_label_1
_geom_bond_atom_site_label_2
_geom_bond_distance
_geom_bond_site_symmetry_2
_ccdc_geom_bond_type
C001   C002    1.435   .     D
C001   C018    1.436   1_455 S
C001   C037    1.416   1_545 S
C002   C003    1.419   .     S
C002   C005    1.436   .     S
C003   C004    1.431   .     D
C003   C008    1.426   .     S
C004   C019    1.431   1_455 S
C004   C021    1.420   .     S
C005   C006    1.440   .     S
C005   C041    1.428   1_545 D
C006   C007    1.434   .     S
C006   C009    1.436   .     D
C007   C008    1.432   .     S
C007   C012    1.447   .     D
C008   C025    1.420   .     D
C009   C010    1.441   .     S
C009   C045    1.447   1_545 S
C010   C011    1.462   .     D
C010   C013    1.441   .     S
C011   C012    1.451   .     S
C011   C016    1.452   .     S
C012   N001    1.391   .     S
C013   C014    1.436   .     D
C013   C049    1.447   1_545 S
C014   C015    1.435   .     S
C014   C017    1.440   .     S
C015   C016    1.446   .     S
C015   C020    1.431   .     D
C016   N003    1.389   .     D
C017   C018    1.436   .     S
C017   C052    1.428   1_545 D
C018   C001    1.436   1_655 S
C018   C019    1.419   .     D
C019   C004    1.431   1_655 S
C019   C020    1.426   .     S
C020   C031    1.420   .     S
C021   C022    1.420   .     D
C021   C032    1.420   1_455 S
C022   C023    1.418   .     S
C022   C025    1.423   .     S
C023   C024    1.420   .     D
C023   C028    1.423   .     S
C024   C033    1.420   1_455 S
C024   C035    1.420   .     S
C025   C026    1.408   .     S
C026   C027    1.428   .     S
C026   N001    1.383   .     D
C027   C028    1.409   .     S
C027   N002    1.383   .     D
C028   C038    1.420   .     D
C029   C030    1.429   .     S
C029   C031    1.407   .     D
C029   N003    1.379   .     S
C030   C034    1.407   .     S
C030   N004    1.379   .     D
C031   C032    1.423   .     S
C032   C021    1.420   1_655 S
C032   C033    1.418   .     D
C033   C024    1.420   1_655 S
C033   C034    1.423   .     S
C034   C050    1.420   .     D
C035   C036    1.431   .     S
C035   C051    1.431   1_455 D
C036   C038    1.426   .     S
C036   C053    1.419   .     D
C037   C001    1.416   1_565 S
C037   C053    1.435   .     S
C037   C054    1.436   1_455 D
C038   C039    1.432   .     S
C039   C040    1.434   .     S
C039   C042    1.447   .     D
C040   C041    1.440   .     S
C040   C045    1.436   .     D
C041   C005    1.428   1_565 D
C041   C053    1.436   .     S
C042   C043    1.451   .     S
C042   N002    1.392   .     S
C043   C044    1.462   .     S
C043   C046    1.452   .     D
C044   C045    1.441   .     S
C044   C049    1.441   .     D
C045   C009    1.447   1_565 S
C046   C047    1.446   .     S
C046   N004    1.389   .     S
C047   C048    1.435   .     D
C047   C050    1.431   .     S
C048   C049    1.436   .     S
C048   C052    1.440   .     S
C049   C013    1.447   1_565 S
C050   C051    1.426   .     S
C051   C035    1.431   1_655 D
C051   C054    1.419   .     S
C052   C017    1.428   1_565 D
C052   C054    1.436   .     S
C054   C037    1.436   1_655 D
N001   Fe001   1.910   .     S
N002   Fe001   1.908   .     S
N003   Fe001   1.905   .     S
N004   Fe001   1.906   .     S
N005   O001    1.499   .     S
N005   Fe001   1.918   .     S
N005   H002    1.029   .     S
N005   H003    1.029   .     S
O001   H001    0.981   .     S
