data_e-1.0-opt
_audit_creation_date              2024-12-22
_audit_creation_method            'Materials Studio'
_symmetry_space_group_name_H-M    'P1'
_symmetry_Int_Tables_number       1
_symmetry_cell_setting            triclinic
loop_
_symmetry_equiv_pos_as_xyz
  x,y,z
_cell_length_a                    12.4809
_cell_length_b                    12.7442
_cell_length_c                    19.9998
_cell_angle_alpha                 90.0000
_cell_angle_beta                  90.0000
_cell_angle_gamma                 90.0000
loop_
_atom_site_label
_atom_site_type_symbol
_atom_site_fract_x
_atom_site_fract_y
_atom_site_fract_z
_atom_site_U_iso_or_equiv
_atom_site_adp_type
_atom_site_occupancy
C001   C     0.05029   0.04544   0.15526   1.00000  Uiso   1.00
C002   C     0.15067   0.10020   0.15489   1.00000  Uiso   1.00
C003   C     0.15005   0.21155   0.15350   1.00000  Uiso   1.00
C004   C     0.05027   0.26662   0.15247   1.00000  Uiso   1.00
C005   C     0.25151   0.04580   0.15596   1.00000  Uiso   1.00
C006   C     0.35166   0.10196   0.15689   1.00000  Uiso   1.00
C007   C     0.35061   0.21467   0.15617   1.00000  Uiso   1.00
C008   C     0.24929   0.26725   0.15389   1.00000  Uiso   1.00
C009   C     0.45167   0.04664   0.15851   1.00000  Uiso   1.00
C010   C     0.55032   0.10561   0.15935   1.00000  Uiso   1.00
C011   C     0.55034   0.22008   0.15961   1.00000  Uiso   1.00
C012   C     0.44847   0.27514   0.15835   1.00000  Uiso   1.00
C013   C     0.64898   0.04663   0.15903   1.00000  Uiso   1.00
C014   C     0.74897   0.10201   0.15773   1.00000  Uiso   1.00
C015   C     0.75002   0.21474   0.15703   1.00000  Uiso   1.00
C016   C     0.65222   0.27530   0.15889   1.00000  Uiso   1.00
C017   C     0.84907   0.04581   0.15683   1.00000  Uiso   1.00
C018   C     0.94990   0.10023   0.15544   1.00000  Uiso   1.00
C019   C     0.95048   0.21156   0.15407   1.00000  Uiso   1.00
C020   C     0.85126   0.26730   0.15479   1.00000  Uiso   1.00
C021   C     0.05024   0.37816   0.15097   1.00000  Uiso   1.00
C022   C     0.14849   0.43424   0.15089   1.00000  Uiso   1.00
C023   C     0.14849   0.54540   0.15095   1.00000  Uiso   1.00
C024   C     0.05024   0.60149   0.15106   1.00000  Uiso   1.00
C025   C     0.24748   0.37854   0.15283   1.00000  Uiso   1.00
C026   C     0.34505   0.43374   0.15534   1.00000  Uiso   1.00
C027   C     0.34507   0.54588   0.15550   1.00000  Uiso   1.00
C028   C     0.24750   0.60109   0.15299   1.00000  Uiso   1.00
C029   C     0.75546   0.43373   0.15618   1.00000  Uiso   1.00
C030   C     0.75545   0.54590   0.15630   1.00000  Uiso   1.00
C031   C     0.85299   0.37858   0.15368   1.00000  Uiso   1.00
C032   C     0.95199   0.43426   0.15142   1.00000  Uiso   1.00
C033   C     0.95199   0.54538   0.15147   1.00000  Uiso   1.00
C034   C     0.85297   0.60105   0.15380   1.00000  Uiso   1.00
C035   C     0.05027   0.71301   0.15262   1.00000  Uiso   1.00
C036   C     0.15007   0.76808   0.15368   1.00000  Uiso   1.00
C037   C     0.05029   0.93419   0.15531   1.00000  Uiso   1.00
C038   C     0.24930   0.71237   0.15412   1.00000  Uiso   1.00
C039   C     0.35063   0.76494   0.15643   1.00000  Uiso   1.00
C040   C     0.35167   0.87765   0.15703   1.00000  Uiso   1.00
C041   C     0.25152   0.93382   0.15602   1.00000  Uiso   1.00
C042   C     0.44850   0.70447   0.15871   1.00000  Uiso   1.00
C043   C     0.55034   0.75954   0.15991   1.00000  Uiso   1.00
C044   C     0.55032   0.87402   0.15950   1.00000  Uiso   1.00
C045   C     0.45167   0.93298   0.15859   1.00000  Uiso   1.00
C046   C     0.65220   0.70431   0.15920   1.00000  Uiso   1.00
C047   C     0.75000   0.76488   0.15724   1.00000  Uiso   1.00
C048   C     0.74897   0.87761   0.15785   1.00000  Uiso   1.00
C049   C     0.64898   0.93299   0.15910   1.00000  Uiso   1.00
C050   C     0.85126   0.71233   0.15497   1.00000  Uiso   1.00
C051   C     0.95048   0.76807   0.15422   1.00000  Uiso   1.00
C052   C     0.84907   0.93381   0.15688   1.00000  Uiso   1.00
C053   C     0.15067   0.87943   0.15500   1.00000  Uiso   1.00
C054   C     0.94990   0.87940   0.15554   1.00000  Uiso   1.00
N001   N     0.44357   0.38441   0.15861   1.00000  Uiso   1.00
N002   N     0.44361   0.59516   0.15907   1.00000  Uiso   1.00
N003   N     0.65715   0.38442   0.15931   1.00000  Uiso   1.00
N004   N     0.65712   0.59518   0.15964   1.00000  Uiso   1.00
N005   N     0.54502   0.48690   0.26786   1.00000  Uiso   1.00
O001   O     0.64963   0.48890   0.29937   1.00000  Uiso   1.00
Fe001  Fe    0.55043   0.48972   0.16982   1.00000  Uiso   1.00
H001   H     0.63686   0.48723   0.34797   1.00000  Uiso   1.00
H002   H     0.50241   0.55061   0.28497   1.00000  Uiso   1.00
H003   H     0.50650   0.41969   0.28322   1.00000  Uiso   1.00
loop_
_geom_bond_atom_site_label_1
_geom_bond_atom_site_label_2
_geom_bond_distance
_geom_bond_site_symmetry_2
_ccdc_geom_bond_type
C001   C002    1.434   .     D
C001   C018    1.434   1_455 S
C001   C037    1.418   1_545 S
C002   C003    1.419   .     S
C002   C005    1.437   .     S
C003   C004    1.430   .     D
C003   C008    1.428   .     S
C004   C019    1.430   1_455 S
C004   C021    1.422   .     S
C005   C006    1.440   .     S
C005   C041    1.427   1_545 D
C006   C007    1.436   .     S
C006   C009    1.434   .     D
C007   C008    1.432   .     S
C007   C012    1.445   .     D
C008   C025    1.419   .     D
C009   C010    1.443   .     S
C009   C045    1.448   1_545 S
C010   C011    1.459   .     D
C010   C013    1.443   .     S
C011   C012    1.452   .     S
C011   C016    1.453   .     S
C012   N001    1.394   .     S
C013   C014    1.434   .     D
C013   C049    1.448   1_545 S
C014   C015    1.437   .     S
C014   C017    1.440   .     S
C015   C016    1.445   .     S
C015   C020    1.431   .     D
C016   N003    1.392   .     D
C017   C018    1.437   .     S
C017   C052    1.427   1_545 D
C018   C001    1.434   1_655 S
C018   C019    1.419   .     D
C019   C004    1.430   1_655 S
C019   C020    1.428   .     S
C020   C031    1.418   .     S
C021   C022    1.419   .     D
C021   C032    1.419   1_455 S
C022   C023    1.417   .     S
C022   C025    1.425   .     S
C023   C024    1.419   .     D
C023   C028    1.426   .     S
C024   C033    1.419   1_455 S
C024   C035    1.422   .     S
C025   C026    1.407   .     S
C026   C027    1.429   .     S
C026   N001    1.382   .     D
C027   C028    1.407   .     S
C027   N002    1.383   .     D
C028   C038    1.419   .     D
C029   C030    1.430   .     S
C029   C031    1.406   .     D
C029   N003    1.380   .     S
C030   C034    1.406   .     S
C030   N004    1.380   .     D
C031   C032    1.426   .     S
C032   C021    1.419   1_655 S
C032   C033    1.416   .     D
C033   C024    1.419   1_655 S
C033   C034    1.426   .     S
C034   C050    1.418   .     D
C035   C036    1.430   .     S
C035   C051    1.430   1_455 D
C036   C038    1.428   .     S
C036   C053    1.419   .     D
C037   C001    1.418   1_565 S
C037   C053    1.434   .     S
C037   C054    1.434   1_455 D
C038   C039    1.432   .     S
C039   C040    1.437   .     S
C039   C042    1.445   .     D
C040   C041    1.441   .     S
C040   C045    1.434   .     D
C041   C005    1.427   1_565 D
C041   C053    1.437   .     S
C042   C043    1.452   .     S
C042   N002    1.394   .     S
C043   C044    1.459   .     S
C043   C046    1.453   .     D
C044   C045    1.443   .     S
C044   C049    1.443   .     D
C045   C009    1.448   1_565 S
C046   C047    1.445   .     S
C046   N004    1.392   .     S
C047   C048    1.437   .     D
C047   C050    1.431   .     S
C048   C049    1.434   .     S
C048   C052    1.440   .     S
C049   C013    1.448   1_565 S
C050   C051    1.428   .     S
C051   C035    1.430   1_655 D
C051   C054    1.419   .     S
C052   C017    1.427   1_565 D
C052   C054    1.437   .     S
C054   C037    1.434   1_655 D
N001   Fe001   1.905   .     S
N002   Fe001   1.905   .     S
N003   Fe001   1.903   .     S
N004   Fe001   1.903   .     S
N005   O001    1.450   .     S
N005   Fe001   1.962   .     S
N005   H002    1.029   .     S
N005   H003    1.029   .     S
O001   H001    0.985   .     S
