data_e-0.4-2-opt
_audit_creation_date              2024-12-22
_audit_creation_method            'Materials Studio'
_symmetry_space_group_name_H-M    'P1'
_symmetry_Int_Tables_number       1
_symmetry_cell_setting            triclinic
loop_
_symmetry_equiv_pos_as_xyz
  x,y,z
_cell_length_a                    8.3976
_cell_length_b                    8.3976
_cell_length_c                    20.0444
_cell_angle_alpha                 90.0000
_cell_angle_beta                  90.0000
_cell_angle_gamma                 90.0000
loop_
_atom_site_label
_atom_site_type_symbol
_atom_site_fract_x
_atom_site_fract_y
_atom_site_fract_z
_atom_site_U_iso_or_equiv
_atom_site_adp_type
_atom_site_occupancy
C001   C     0.50135   0.08465   0.14048   1.00000  Uiso   1.00
C002   C     0.35466   0.16640   0.14022   1.00000  Uiso   1.00
C003   C     0.64802   0.16631   0.13970   1.00000  Uiso   1.00
C004   C     0.79671   0.91483   0.13742   1.00000  Uiso   1.00
C005   C     0.79663   0.08195   0.13780   1.00000  Uiso   1.00
C006   C     0.91770   0.20307   0.13749   1.00000  Uiso   1.00
C007   C     0.83317   0.35169   0.13883   1.00000  Uiso   1.00
C008   C     0.20611   0.08195   0.13815   1.00000  Uiso   1.00
C009   C     0.08488   0.20307   0.13756   1.00000  Uiso   1.00
C010   C     0.16912   0.35170   0.13899   1.00000  Uiso   1.00
C011   C     0.08741   0.49832   0.13857   1.00000  Uiso   1.00
C012   C     0.16910   0.64496   0.13812   1.00000  Uiso   1.00
C013   C     0.35468   0.83035   0.13949   1.00000  Uiso   1.00
C014   C     0.20613   0.91477   0.13785   1.00000  Uiso   1.00
C015   C     0.08493   0.79361   0.13699   1.00000  Uiso   1.00
C016   C     0.64812   0.83041   0.13880   1.00000  Uiso   1.00
C017   C     0.83326   0.64503   0.13788   1.00000  Uiso   1.00
C018   C     0.91778   0.79369   0.13686   1.00000  Uiso   1.00
C019   C     0.50138   0.91202   0.14001   1.00000  Uiso   1.00
C020   C     0.91492   0.49834   0.13854   1.00000  Uiso   1.00
N001   N     0.66866   0.33095   0.14002   1.00000  Uiso   1.00
N002   N     0.33370   0.33114   0.14076   1.00000  Uiso   1.00
N003   N     0.33365   0.66557   0.13951   1.00000  Uiso   1.00
N004   N     0.66885   0.66594   0.13845   1.00000  Uiso   1.00
N005   N     0.43607   0.53383   0.29433   1.00000  Uiso   1.00
Fe001  Fe    0.50034   0.49893   0.14975   1.00000  Uiso   1.00
O001   O     0.52758   0.51518   0.24489   1.00000  Uiso   1.00
O002   O     0.47773   0.56715   0.35106   1.00000  Uiso   1.00
O003   O     0.27122   0.51170   0.28074   1.00000  Uiso   1.00
H001   H     0.22287   0.53077   0.32488   1.00000  Uiso   1.00
loop_
_geom_bond_atom_site_label_1
_geom_bond_atom_site_label_2
_geom_bond_distance
_geom_bond_site_symmetry_2
_ccdc_geom_bond_type
C001   C002    1.410   .     D
C001   C003    1.410   .     S
C001   C019    1.450   1_545 S
C002   C008    1.436   .     S
C002   N002    1.395   .     S
C003   C005    1.436   .     D
C003   N001    1.393   .     S
C004   C005    1.403   1_565 S
C004   C016    1.435   .     D
C004   C018    1.438   .     S
C005   C004    1.403   1_545 S
C005   C006    1.438   .     S
C006   C007    1.436   .     S
C006   C009    1.404   1_655 D
C007   C020    1.410   .     S
C007   N001    1.393   .     D
C008   C009    1.439   .     S
C008   C014    1.404   1_545 D
C009   C006    1.404   1_455 D
C009   C010    1.435   .     S
C010   C011    1.410   .     S
C010   N002    1.393   .     D
C011   C012    1.410   .     S
C011   C020    1.449   1_455 D
C012   C015    1.435   .     S
C012   N003    1.393   .     D
C013   C014    1.435   .     S
C013   C019    1.410   .     D
C013   N003    1.395   .     S
C014   C008    1.404   1_565 D
C014   C015    1.439   .     S
C015   C018    1.404   1_455 D
C016   C019    1.410   .     S
C016   N004    1.392   .     S
C017   C018    1.436   .     S
C017   C020    1.410   .     S
C017   N004    1.392   .     D
C018   C015    1.404   1_655 D
C019   C001    1.450   1_565 S
C020   C011    1.449   1_655 D
N001   Fe001   2.006   .     S
N002   Fe001   1.994   .     S
N003   Fe001   1.990   .     S
N004   Fe001   2.005   .     S
N005   O001    1.264   .     S
N005   O002    1.222   .     D
N005   O003    1.423   .     S
Fe001  O001    1.925   .     S
O003   H001    0.987   .     S
