data_e+0.8-opt
_audit_creation_date              2024-12-22
_audit_creation_method            'Materials Studio'
_symmetry_space_group_name_H-M    'P1'
_symmetry_Int_Tables_number       1
_symmetry_cell_setting            triclinic
loop_
_symmetry_equiv_pos_as_xyz
  x,y,z
_cell_length_a                    8.3976
_cell_length_b                    8.3976
_cell_length_c                    20.0444
_cell_angle_alpha                 90.0000
_cell_angle_beta                  90.0000
_cell_angle_gamma                 90.0000
loop_
_atom_site_label
_atom_site_type_symbol
_atom_site_fract_x
_atom_site_fract_y
_atom_site_fract_z
_atom_site_U_iso_or_equiv
_atom_site_adp_type
_atom_site_occupancy
C001   C     0.50318   0.08504   0.13588   1.00000  Uiso   1.00
C002   C     0.35690   0.16703   0.13576   1.00000  Uiso   1.00
C003   C     0.64951   0.16702   0.13567   1.00000  Uiso   1.00
C004   C     0.79829   0.91477   0.13611   1.00000  Uiso   1.00
C005   C     0.79827   0.08250   0.13594   1.00000  Uiso   1.00
C006   C     0.91933   0.20360   0.13578   1.00000  Uiso   1.00
C007   C     0.83486   0.35231   0.13549   1.00000  Uiso   1.00
C008   C     0.20810   0.08260   0.13603   1.00000  Uiso   1.00
C009   C     0.08712   0.20360   0.13578   1.00000  Uiso   1.00
C010   C     0.17160   0.35238   0.13543   1.00000  Uiso   1.00
C011   C     0.08958   0.49865   0.13562   1.00000  Uiso   1.00
C012   C     0.17149   0.64496   0.13593   1.00000  Uiso   1.00
C013   C     0.35692   0.83035   0.13614   1.00000  Uiso   1.00
C014   C     0.20806   0.91474   0.13623   1.00000  Uiso   1.00
C015   C     0.08715   0.79372   0.13617   1.00000  Uiso   1.00
C016   C     0.64943   0.83029   0.13603   1.00000  Uiso   1.00
C017   C     0.83487   0.64497   0.13589   1.00000  Uiso   1.00
C018   C     0.91922   0.79370   0.13611   1.00000  Uiso   1.00
C019   C     0.50317   0.91236   0.13608   1.00000  Uiso   1.00
C020   C     0.91685   0.49866   0.13565   1.00000  Uiso   1.00
N001   N     0.66949   0.33237   0.13539   1.00000  Uiso   1.00
N002   N     0.33694   0.33242   0.13544   1.00000  Uiso   1.00
N003   N     0.33703   0.66497   0.13610   1.00000  Uiso   1.00
N004   N     0.66935   0.66494   0.13596   1.00000  Uiso   1.00
N005   N     0.43187   0.52635   0.31718   1.00000  Uiso   1.00
Fe001  Fe    0.50344   0.49850   0.13544   1.00000  Uiso   1.00
O001   O     0.53922   0.45859   0.28788   1.00000  Uiso   1.00
O002   O     0.43566   0.62720   0.36227   1.00000  Uiso   1.00
O003   O     0.27445   0.48186   0.29360   1.00000  Uiso   1.00
H001   H     0.20535   0.55780   0.31715   1.00000  Uiso   1.00
loop_
_geom_bond_atom_site_label_1
_geom_bond_atom_site_label_2
_geom_bond_distance
_geom_bond_site_symmetry_2
_ccdc_geom_bond_type
C001   C002    1.408   .     D
C001   C003    1.409   .     S
C001   C019    1.450   1_545 S
C002   C008    1.437   .     S
C002   N002    1.399   .     S
C003   C005    1.437   .     D
C003   N001    1.399   .     S
C004   C005    1.409   1_565 S
C004   C016    1.437   .     D
C004   C018    1.437   .     S
C005   C004    1.409   1_545 S
C005   C006    1.438   .     S
C006   C007    1.436   .     S
C006   C009    1.409   1_655 D
C007   C020    1.409   .     S
C007   N001    1.399   .     D
C008   C009    1.437   .     S
C008   C014    1.410   1_545 D
C009   C006    1.409   1_455 D
C009   C010    1.437   .     S
C010   C011    1.408   .     S
C010   N002    1.399   .     D
C011   C012    1.408   .     S
C011   C020    1.450   1_455 D
C012   C015    1.436   .     S
C012   N003    1.400   .     D
C013   C014    1.437   .     S
C013   C019    1.408   .     D
C013   N003    1.399   .     S
C014   C008    1.410   1_565 D
C014   C015    1.437   .     S
C015   C018    1.410   1_455 D
C016   C019    1.408   .     S
C016   N004    1.399   .     S
C017   C018    1.436   .     S
C017   C020    1.408   .     S
C017   N004    1.400   .     D
C018   C015    1.410   1_655 D
C019   C001    1.450   1_565 S
C020   C011    1.450   1_655 D
N001   Fe001   1.972   .     S
N002   Fe001   1.975   .     S
N003   Fe001   1.977   .     S
N004   Fe001   1.974   .     S
N005   O001    1.217   .     D
N005   O002    1.239   .     S
N005   O003    1.453   .     S
O003   H001    0.983   .     S
