data_e+0.0-opt
_audit_creation_date              2024-12-22
_audit_creation_method            'Materials Studio'
_symmetry_space_group_name_H-M    'P1'
_symmetry_Int_Tables_number       1
_symmetry_cell_setting            triclinic
loop_
_symmetry_equiv_pos_as_xyz
  x,y,z
_cell_length_a                    8.3976
_cell_length_b                    8.3976
_cell_length_c                    20.0444
_cell_angle_alpha                 90.0000
_cell_angle_beta                  90.0000
_cell_angle_gamma                 90.0000
loop_
_atom_site_label
_atom_site_type_symbol
_atom_site_fract_x
_atom_site_fract_y
_atom_site_fract_z
_atom_site_U_iso_or_equiv
_atom_site_adp_type
_atom_site_occupancy
C001   C     0.50279   0.08464   0.13579   1.00000  Uiso   1.00
C002   C     0.35644   0.16658   0.13566   1.00000  Uiso   1.00
C003   C     0.64916   0.16655   0.13560   1.00000  Uiso   1.00
C004   C     0.79786   0.91424   0.13609   1.00000  Uiso   1.00
C005   C     0.79786   0.08220   0.13596   1.00000  Uiso   1.00
C006   C     0.91884   0.20318   0.13580   1.00000  Uiso   1.00
C007   C     0.83448   0.35186   0.13539   1.00000  Uiso   1.00
C008   C     0.20774   0.08223   0.13602   1.00000  Uiso   1.00
C009   C     0.08678   0.20321   0.13579   1.00000  Uiso   1.00
C010   C     0.17114   0.35192   0.13532   1.00000  Uiso   1.00
C011   C     0.08915   0.49822   0.13541   1.00000  Uiso   1.00
C012   C     0.17106   0.64458   0.13563   1.00000  Uiso   1.00
C013   C     0.35646   0.82996   0.13593   1.00000  Uiso   1.00
C014   C     0.20772   0.91426   0.13615   1.00000  Uiso   1.00
C015   C     0.08680   0.79324   0.13602   1.00000  Uiso   1.00
C016   C     0.64911   0.82994   0.13589   1.00000  Uiso   1.00
C017   C     0.83449   0.64458   0.13570   1.00000  Uiso   1.00
C018   C     0.91876   0.79326   0.13602   1.00000  Uiso   1.00
C019   C     0.50279   0.91194   0.13595   1.00000  Uiso   1.00
C020   C     0.91644   0.49824   0.13548   1.00000  Uiso   1.00
N001   N     0.66908   0.33198   0.13511   1.00000  Uiso   1.00
N002   N     0.33652   0.33205   0.13514   1.00000  Uiso   1.00
N003   N     0.33663   0.66448   0.13560   1.00000  Uiso   1.00
N004   N     0.66893   0.66449   0.13560   1.00000  Uiso   1.00
N005   N     0.43434   0.53107   0.31649   1.00000  Uiso   1.00
Fe001  Fe    0.50283   0.49816   0.13544   1.00000  Uiso   1.00
O001   O     0.54006   0.47059   0.28352   1.00000  Uiso   1.00
O002   O     0.44046   0.61999   0.36513   1.00000  Uiso   1.00
O003   O     0.27528   0.49051   0.29280   1.00000  Uiso   1.00
H001   H     0.20671   0.55009   0.32375   1.00000  Uiso   1.00
loop_
_geom_bond_atom_site_label_1
_geom_bond_atom_site_label_2
_geom_bond_distance
_geom_bond_site_symmetry_2
_ccdc_geom_bond_type
C001   C002    1.409   .     D
C001   C003    1.409   .     S
C001   C019    1.450   1_545 S
C002   C008    1.436   .     S
C002   N002    1.400   .     S
C003   C005    1.436   .     D
C003   N001    1.399   .     S
C004   C005    1.410   1_565 S
C004   C016    1.436   .     D
C004   C018    1.436   .     S
C005   C004    1.410   1_545 S
C005   C006    1.437   .     S
C006   C007    1.436   .     S
C006   C009    1.410   1_655 D
C007   C020    1.409   .     S
C007   N001    1.399   .     D
C008   C009    1.437   .     S
C008   C014    1.411   1_545 D
C009   C006    1.410   1_455 D
C009   C010    1.436   .     S
C010   C011    1.408   .     S
C010   N002    1.399   .     D
C011   C012    1.408   .     S
C011   C020    1.450   1_455 D
C012   C015    1.435   .     S
C012   N003    1.400   .     D
C013   C014    1.436   .     S
C013   C019    1.409   .     D
C013   N003    1.400   .     S
C014   C008    1.411   1_565 D
C014   C015    1.437   .     S
C015   C018    1.411   1_455 D
C016   C019    1.409   .     S
C016   N004    1.399   .     S
C017   C018    1.435   .     S
C017   C020    1.408   .     S
C017   N004    1.400   .     D
C018   C015    1.411   1_655 D
C019   C001    1.450   1_565 S
C020   C011    1.450   1_655 D
N001   Fe001   1.974   .     S
N002   Fe001   1.974   .     S
N003   Fe001   1.974   .     S
N004   Fe001   1.974   .     S
N005   O001    1.218   .     D
N005   O002    1.229   .     S
N005   O003    1.458   .     S
O003   H001    0.983   .     S
