data_e+1.0-opt
_audit_creation_date              2024-12-22
_audit_creation_method            'Materials Studio'
_symmetry_space_group_name_H-M    'P1'
_symmetry_Int_Tables_number       1
_symmetry_cell_setting            triclinic
loop_
_symmetry_equiv_pos_as_xyz
  x,y,z
_cell_length_a                    8.3976
_cell_length_b                    8.3976
_cell_length_c                    20.0444
_cell_angle_alpha                 90.0000
_cell_angle_beta                  90.0000
_cell_angle_gamma                 90.0000
loop_
_atom_site_label
_atom_site_type_symbol
_atom_site_fract_x
_atom_site_fract_y
_atom_site_fract_z
_atom_site_U_iso_or_equiv
_atom_site_adp_type
_atom_site_occupancy
C001   C     0.50284   0.08492   0.13641   1.00000  Uiso   1.00
C002   C     0.35658   0.16690   0.13629   1.00000  Uiso   1.00
C003   C     0.64916   0.16687   0.13615   1.00000  Uiso   1.00
C004   C     0.79802   0.91462   0.13669   1.00000  Uiso   1.00
C005   C     0.79805   0.08226   0.13655   1.00000  Uiso   1.00
C006   C     0.91909   0.20330   0.13636   1.00000  Uiso   1.00
C007   C     0.83451   0.35216   0.13588   1.00000  Uiso   1.00
C008   C     0.20768   0.08230   0.13666   1.00000  Uiso   1.00
C009   C     0.08669   0.20334   0.13637   1.00000  Uiso   1.00
C010   C     0.17129   0.35223   0.13585   1.00000  Uiso   1.00
C011   C     0.08928   0.49847   0.13591   1.00000  Uiso   1.00
C012   C     0.17121   0.64473   0.13615   1.00000  Uiso   1.00
C013   C     0.35658   0.83013   0.13652   1.00000  Uiso   1.00
C014   C     0.20769   0.91463   0.13677   1.00000  Uiso   1.00
C015   C     0.08670   0.79354   0.13660   1.00000  Uiso   1.00
C016   C     0.64908   0.83009   0.13648   1.00000  Uiso   1.00
C017   C     0.83450   0.64476   0.13621   1.00000  Uiso   1.00
C018   C     0.91901   0.79355   0.13658   1.00000  Uiso   1.00
C019   C     0.50286   0.91212   0.13656   1.00000  Uiso   1.00
C020   C     0.91649   0.49847   0.13597   1.00000  Uiso   1.00
N001   N     0.66924   0.33217   0.13568   1.00000  Uiso   1.00
N002   N     0.33652   0.33225   0.13585   1.00000  Uiso   1.00
N003   N     0.33665   0.66484   0.13624   1.00000  Uiso   1.00
N004   N     0.66906   0.66485   0.13625   1.00000  Uiso   1.00
N005   N     0.43361   0.52817   0.31391   1.00000  Uiso   1.00
Fe001  Fe    0.50307   0.49858   0.13555   1.00000  Uiso   1.00
O001   O     0.53938   0.46977   0.28029   1.00000  Uiso   1.00
O002   O     0.44007   0.61612   0.36349   1.00000  Uiso   1.00
O003   O     0.27491   0.48871   0.29033   1.00000  Uiso   1.00
H001   H     0.20691   0.55340   0.31960   1.00000  Uiso   1.00
loop_
_geom_bond_atom_site_label_1
_geom_bond_atom_site_label_2
_geom_bond_distance
_geom_bond_site_symmetry_2
_ccdc_geom_bond_type
C001   C002    1.408   .     D
C001   C003    1.408   .     S
C001   C019    1.451   1_545 S
C002   C008    1.438   .     S
C002   N002    1.399   .     S
C003   C005    1.438   .     D
C003   N001    1.398   .     S
C004   C005    1.408   1_565 S
C004   C016    1.438   .     D
C004   C018    1.437   .     S
C005   C004    1.408   1_545 S
C005   C006    1.438   .     S
C006   C007    1.438   .     S
C006   C009    1.407   1_655 D
C007   C020    1.408   .     S
C007   N001    1.398   .     D
C008   C009    1.437   .     S
C008   C014    1.408   1_545 D
C009   C006    1.407   1_455 D
C009   C010    1.438   .     S
C010   C011    1.408   .     S
C010   N002    1.398   .     D
C011   C012    1.408   .     S
C011   C020    1.451   1_455 D
C012   C015    1.437   .     S
C012   N003    1.400   .     D
C013   C014    1.438   .     S
C013   C019    1.408   .     D
C013   N003    1.398   .     S
C014   C008    1.408   1_565 D
C014   C015    1.437   .     S
C015   C018    1.408   1_455 D
C016   C019    1.408   .     S
C016   N004    1.398   .     S
C017   C018    1.437   .     S
C017   C020    1.408   .     S
C017   N004    1.400   .     D
C018   C015    1.408   1_655 D
C019   C001    1.451   1_565 S
C020   C011    1.451   1_655 D
N001   Fe001   1.975   .     S
N002   Fe001   1.977   .     S
N003   Fe001   1.976   .     S
N004   Fe001   1.973   .     S
N005   O001    1.218   .     D
N005   O002    1.239   .     S
N005   O003    1.452   .     S
O003   H001    0.983   .     S
