data_e-0.2-opt
_audit_creation_date              2024-12-22
_audit_creation_method            'Materials Studio'
_symmetry_space_group_name_H-M    'P1'
_symmetry_Int_Tables_number       1
_symmetry_cell_setting            triclinic
loop_
_symmetry_equiv_pos_as_xyz
  x,y,z
_cell_length_a                    8.3976
_cell_length_b                    8.3976
_cell_length_c                    20.0444
_cell_angle_alpha                 90.0000
_cell_angle_beta                  90.0000
_cell_angle_gamma                 90.0000
loop_
_atom_site_label
_atom_site_type_symbol
_atom_site_fract_x
_atom_site_fract_y
_atom_site_fract_z
_atom_site_U_iso_or_equiv
_atom_site_adp_type
_atom_site_occupancy
C001   C     0.50262   0.08443   0.13623   1.00000  Uiso   1.00
C002   C     0.35622   0.16635   0.13607   1.00000  Uiso   1.00
C003   C     0.64904   0.16631   0.13599   1.00000  Uiso   1.00
C004   C     0.79775   0.91409   0.13638   1.00000  Uiso   1.00
C005   C     0.79774   0.08194   0.13629   1.00000  Uiso   1.00
C006   C     0.91872   0.20290   0.13610   1.00000  Uiso   1.00
C007   C     0.83432   0.35162   0.13570   1.00000  Uiso   1.00
C008   C     0.20750   0.08196   0.13636   1.00000  Uiso   1.00
C009   C     0.08653   0.20294   0.13610   1.00000  Uiso   1.00
C010   C     0.17090   0.35166   0.13564   1.00000  Uiso   1.00
C011   C     0.08894   0.49802   0.13566   1.00000  Uiso   1.00
C012   C     0.17084   0.64440   0.13581   1.00000  Uiso   1.00
C013   C     0.35623   0.82979   0.13624   1.00000  Uiso   1.00
C014   C     0.20749   0.91410   0.13642   1.00000  Uiso   1.00
C015   C     0.08656   0.79307   0.13620   1.00000  Uiso   1.00
C016   C     0.64900   0.82978   0.13621   1.00000  Uiso   1.00
C017   C     0.83432   0.64442   0.13592   1.00000  Uiso   1.00
C018   C     0.91865   0.79310   0.13623   1.00000  Uiso   1.00
C019   C     0.50262   0.91175   0.13634   1.00000  Uiso   1.00
C020   C     0.91627   0.49803   0.13574   1.00000  Uiso   1.00
N001   N     0.66906   0.33163   0.13546   1.00000  Uiso   1.00
N002   N     0.33617   0.33170   0.13552   1.00000  Uiso   1.00
N003   N     0.33629   0.66442   0.13581   1.00000  Uiso   1.00
N004   N     0.66892   0.66446   0.13584   1.00000  Uiso   1.00
N005   N     0.43509   0.53317   0.31383   1.00000  Uiso   1.00
Fe001  Fe    0.50255   0.49804   0.13640   1.00000  Uiso   1.00
O001   O     0.53801   0.48336   0.27621   1.00000  Uiso   1.00
O002   O     0.44602   0.60651   0.36646   1.00000  Uiso   1.00
O003   O     0.27409   0.49894   0.29068   1.00000  Uiso   1.00
H001   H     0.20823   0.54539   0.32630   1.00000  Uiso   1.00
loop_
_geom_bond_atom_site_label_1
_geom_bond_atom_site_label_2
_geom_bond_distance
_geom_bond_site_symmetry_2
_ccdc_geom_bond_type
C001   C002    1.409   .     D
C001   C003    1.409   .     S
C001   C019    1.450   1_545 S
C002   C008    1.436   .     S
C002   N002    1.399   .     S
C003   C005    1.436   .     D
C003   N001    1.398   .     S
C004   C005    1.410   1_565 S
C004   C016    1.436   .     D
C004   C018    1.436   .     S
C005   C004    1.410   1_545 S
C005   C006    1.437   .     S
C006   C007    1.436   .     S
C006   C009    1.409   1_655 D
C007   C020    1.409   .     S
C007   N001    1.398   .     D
C008   C009    1.437   .     S
C008   C014    1.410   1_545 D
C009   C006    1.409   1_455 D
C009   C010    1.436   .     S
C010   C011    1.409   .     S
C010   N002    1.398   .     D
C011   C012    1.409   .     S
C011   C020    1.450   1_455 D
C012   C015    1.435   .     S
C012   N003    1.399   .     D
C013   C014    1.436   .     S
C013   C019    1.409   .     D
C013   N003    1.399   .     S
C014   C008    1.410   1_565 D
C014   C015    1.437   .     S
C015   C018    1.410   1_455 D
C016   C019    1.409   .     S
C016   N004    1.398   .     S
C017   C018    1.435   .     S
C017   C020    1.409   .     S
C017   N004    1.399   .     D
C018   C015    1.410   1_655 D
C019   C001    1.450   1_565 S
C020   C011    1.450   1_655 D
N001   Fe001   1.977   .     S
N002   Fe001   1.976   .     S
N003   Fe001   1.975   .     S
N004   Fe001   1.976   .     S
N005   O001    1.221   .     D
N005   O002    1.225   .     S
N005   O003    1.458   .     S
O003   H001    0.984   .     S
