data_e+0.6-opt
_audit_creation_date              2024-12-22
_audit_creation_method            'Materials Studio'
_symmetry_space_group_name_H-M    'P1'
_symmetry_Int_Tables_number       1
_symmetry_cell_setting            triclinic
loop_
_symmetry_equiv_pos_as_xyz
  x,y,z
_cell_length_a                    8.3976
_cell_length_b                    8.3976
_cell_length_c                    20.0444
_cell_angle_alpha                 90.0000
_cell_angle_beta                  90.0000
_cell_angle_gamma                 90.0000
loop_
_atom_site_label
_atom_site_type_symbol
_atom_site_fract_x
_atom_site_fract_y
_atom_site_fract_z
_atom_site_U_iso_or_equiv
_atom_site_adp_type
_atom_site_occupancy
C001   C     0.50332   0.08511   0.13595   1.00000  Uiso   1.00
C002   C     0.35699   0.16709   0.13583   1.00000  Uiso   1.00
C003   C     0.64968   0.16708   0.13573   1.00000  Uiso   1.00
C004   C     0.79841   0.91477   0.13611   1.00000  Uiso   1.00
C005   C     0.79839   0.08268   0.13594   1.00000  Uiso   1.00
C006   C     0.91938   0.20367   0.13578   1.00000  Uiso   1.00
C007   C     0.83503   0.35238   0.13554   1.00000  Uiso   1.00
C008   C     0.20828   0.08273   0.13604   1.00000  Uiso   1.00
C009   C     0.08735   0.20371   0.13578   1.00000  Uiso   1.00
C010   C     0.17174   0.35243   0.13548   1.00000  Uiso   1.00
C011   C     0.08972   0.49872   0.13567   1.00000  Uiso   1.00
C012   C     0.17163   0.64504   0.13600   1.00000  Uiso   1.00
C013   C     0.35705   0.83045   0.13622   1.00000  Uiso   1.00
C014   C     0.20822   0.91477   0.13625   1.00000  Uiso   1.00
C015   C     0.08734   0.79376   0.13618   1.00000  Uiso   1.00
C016   C     0.64956   0.83042   0.13607   1.00000  Uiso   1.00
C017   C     0.83509   0.64507   0.13593   1.00000  Uiso   1.00
C018   C     0.91931   0.79375   0.13610   1.00000  Uiso   1.00
C019   C     0.50333   0.91243   0.13614   1.00000  Uiso   1.00
C020   C     0.91700   0.49871   0.13569   1.00000  Uiso   1.00
N001   N     0.66963   0.33247   0.13548   1.00000  Uiso   1.00
N002   N     0.33712   0.33254   0.13554   1.00000  Uiso   1.00
N003   N     0.33722   0.66500   0.13622   1.00000  Uiso   1.00
N004   N     0.66944   0.66496   0.13603   1.00000  Uiso   1.00
N005   N     0.43104   0.52535   0.31709   1.00000  Uiso   1.00
Fe001  Fe    0.50364   0.49862   0.13583   1.00000  Uiso   1.00
O001   O     0.53860   0.45885   0.28736   1.00000  Uiso   1.00
O002   O     0.43469   0.62536   0.36278   1.00000  Uiso   1.00
O003   O     0.27363   0.48140   0.29332   1.00000  Uiso   1.00
H001   H     0.20488   0.55893   0.31607   1.00000  Uiso   1.00
loop_
_geom_bond_atom_site_label_1
_geom_bond_atom_site_label_2
_geom_bond_distance
_geom_bond_site_symmetry_2
_ccdc_geom_bond_type
C001   C002    1.409   .     D
C001   C003    1.409   .     S
C001   C019    1.450   1_545 S
C002   C008    1.436   .     S
C002   N002    1.399   .     S
C003   C005    1.436   .     D
C003   N001    1.399   .     S
C004   C005    1.410   1_565 S
C004   C016    1.437   .     D
C004   C018    1.437   .     S
C005   C004    1.410   1_545 S
C005   C006    1.437   .     S
C006   C007    1.436   .     S
C006   C009    1.410   1_655 D
C007   C020    1.409   .     S
C007   N001    1.399   .     D
C008   C009    1.436   .     S
C008   C014    1.410   1_545 D
C009   C006    1.410   1_455 D
C009   C010    1.436   .     S
C010   C011    1.408   .     S
C010   N002    1.399   .     D
C011   C012    1.408   .     S
C011   C020    1.450   1_455 D
C012   C015    1.436   .     S
C012   N003    1.401   .     D
C013   C014    1.436   .     S
C013   C019    1.408   .     D
C013   N003    1.399   .     S
C014   C008    1.410   1_565 D
C014   C015    1.436   .     S
C015   C018    1.411   1_455 D
C016   C019    1.408   .     S
C016   N004    1.399   .     S
C017   C018    1.435   .     S
C017   C020    1.408   .     S
C017   N004    1.401   .     D
C018   C015    1.411   1_655 D
C019   C001    1.450   1_565 S
C020   C011    1.450   1_655 D
N001   Fe001   1.972   .     S
N002   Fe001   1.975   .     S
N003   Fe001   1.976   .     S
N004   Fe001   1.972   .     S
N005   O001    1.218   .     D
N005   O002    1.243   .     S
N005   O003    1.453   .     S
O003   H001    0.982   .     S
