data_e-1.0-opt
_audit_creation_date              2024-12-22
_audit_creation_method            'Materials Studio'
_symmetry_space_group_name_H-M    'P1'
_symmetry_Int_Tables_number       1
_symmetry_cell_setting            triclinic
loop_
_symmetry_equiv_pos_as_xyz
  x,y,z
_cell_length_a                    8.3976
_cell_length_b                    8.3976
_cell_length_c                    20.0444
_cell_angle_alpha                 90.0000
_cell_angle_beta                  90.0000
_cell_angle_gamma                 90.0000
loop_
_atom_site_label
_atom_site_type_symbol
_atom_site_fract_x
_atom_site_fract_y
_atom_site_fract_z
_atom_site_U_iso_or_equiv
_atom_site_adp_type
_atom_site_occupancy
C001   C     0.50114   0.08474   0.14027   1.00000  Uiso   1.00
C002   C     0.35452   0.16654   0.14004   1.00000  Uiso   1.00
C003   C     0.64779   0.16647   0.13955   1.00000  Uiso   1.00
C004   C     0.79658   0.91506   0.13706   1.00000  Uiso   1.00
C005   C     0.79650   0.08198   0.13748   1.00000  Uiso   1.00
C006   C     0.91758   0.20317   0.13724   1.00000  Uiso   1.00
C007   C     0.83290   0.35183   0.13879   1.00000  Uiso   1.00
C008   C     0.20586   0.08198   0.13782   1.00000  Uiso   1.00
C009   C     0.08458   0.20317   0.13733   1.00000  Uiso   1.00
C010   C     0.16891   0.35184   0.13899   1.00000  Uiso   1.00
C011   C     0.08718   0.49843   0.13858   1.00000  Uiso   1.00
C012   C     0.16890   0.64510   0.13806   1.00000  Uiso   1.00
C013   C     0.35449   0.83043   0.13923   1.00000  Uiso   1.00
C014   C     0.20586   0.91501   0.13748   1.00000  Uiso   1.00
C015   C     0.08460   0.79379   0.13670   1.00000  Uiso   1.00
C016   C     0.64787   0.83052   0.13855   1.00000  Uiso   1.00
C017   C     0.83297   0.64513   0.13778   1.00000  Uiso   1.00
C018   C     0.91765   0.79386   0.13656   1.00000  Uiso   1.00
C019   C     0.50119   0.91217   0.13976   1.00000  Uiso   1.00
C020   C     0.91468   0.49848   0.13852   1.00000  Uiso   1.00
N001   N     0.66835   0.33104   0.14011   1.00000  Uiso   1.00
N002   N     0.33354   0.33126   0.14080   1.00000  Uiso   1.00
N003   N     0.33344   0.66575   0.13950   1.00000  Uiso   1.00
N004   N     0.66855   0.66608   0.13841   1.00000  Uiso   1.00
N005   N     0.43685   0.53324   0.29533   1.00000  Uiso   1.00
Fe001  Fe    0.49986   0.49902   0.14961   1.00000  Uiso   1.00
O001   O     0.52799   0.51475   0.24530   1.00000  Uiso   1.00
O002   O     0.48050   0.56374   0.35143   1.00000  Uiso   1.00
O003   O     0.27235   0.51419   0.28169   1.00000  Uiso   1.00
H001   H     0.22352   0.52949   0.32618   1.00000  Uiso   1.00
loop_
_geom_bond_atom_site_label_1
_geom_bond_atom_site_label_2
_geom_bond_distance
_geom_bond_site_symmetry_2
_ccdc_geom_bond_type
C001   C002    1.410   .     D
C001   C003    1.410   .     S
C001   C019    1.449   1_545 S
C002   C008    1.437   .     S
C002   N002    1.394   .     S
C003   C005    1.437   .     D
C003   N001    1.393   .     S
C004   C005    1.402   1_565 S
C004   C016    1.437   .     D
C004   C018    1.439   .     S
C005   C004    1.402   1_545 S
C005   C006    1.439   .     S
C006   C007    1.437   .     S
C006   C009    1.402   1_655 D
C007   C020    1.410   .     S
C007   N001    1.393   .     D
C008   C009    1.440   .     S
C008   C014    1.402   1_545 D
C009   C006    1.402   1_455 D
C009   C010    1.436   .     S
C010   C011    1.409   .     S
C010   N002    1.394   .     D
C011   C012    1.410   .     S
C011   C020    1.449   1_455 D
C012   C015    1.436   .     S
C012   N003    1.393   .     D
C013   C014    1.437   .     S
C013   C019    1.410   .     D
C013   N003    1.394   .     S
C014   C008    1.402   1_565 D
C014   C015    1.440   .     S
C015   C018    1.402   1_455 D
C016   C019    1.410   .     S
C016   N004    1.392   .     S
C017   C018    1.437   .     S
C017   C020    1.410   .     S
C017   N004    1.392   .     D
C018   C015    1.402   1_655 D
C019   C001    1.449   1_565 S
C020   C011    1.449   1_655 D
N001   Fe001   2.007   .     S
N002   Fe001   1.992   .     S
N003   Fe001   1.989   .     S
N004   Fe001   2.006   .     S
N005   O001    1.271   .     S
N005   O002    1.210   .     D
N005   O003    1.417   .     S
Fe001  O001    1.937   .     S
O003   H001    0.990   .     S
