data_e+0.2-opt
_audit_creation_date              2024-12-22
_audit_creation_method            'Materials Studio'
_symmetry_space_group_name_H-M    'P1'
_symmetry_Int_Tables_number       1
_symmetry_cell_setting            triclinic
loop_
_symmetry_equiv_pos_as_xyz
  x,y,z
_cell_length_a                    8.3976
_cell_length_b                    8.3976
_cell_length_c                    20.0444
_cell_angle_alpha                 90.0000
_cell_angle_beta                  90.0000
_cell_angle_gamma                 90.0000
loop_
_atom_site_label
_atom_site_type_symbol
_atom_site_fract_x
_atom_site_fract_y
_atom_site_fract_z
_atom_site_U_iso_or_equiv
_atom_site_adp_type
_atom_site_occupancy
C001   C     0.50292   0.08477   0.13585   1.00000  Uiso   1.00
C002   C     0.35659   0.16670   0.13572   1.00000  Uiso   1.00
C003   C     0.64929   0.16667   0.13565   1.00000  Uiso   1.00
C004   C     0.79799   0.91438   0.13615   1.00000  Uiso   1.00
C005   C     0.79798   0.08232   0.13599   1.00000  Uiso   1.00
C006   C     0.91898   0.20333   0.13583   1.00000  Uiso   1.00
C007   C     0.83463   0.35199   0.13545   1.00000  Uiso   1.00
C008   C     0.20788   0.08235   0.13607   1.00000  Uiso   1.00
C009   C     0.08692   0.20335   0.13583   1.00000  Uiso   1.00
C010   C     0.17129   0.35205   0.13538   1.00000  Uiso   1.00
C011   C     0.08930   0.49835   0.13552   1.00000  Uiso   1.00
C012   C     0.17121   0.64470   0.13578   1.00000  Uiso   1.00
C013   C     0.35660   0.83009   0.13604   1.00000  Uiso   1.00
C014   C     0.20786   0.91440   0.13623   1.00000  Uiso   1.00
C015   C     0.08693   0.79337   0.13613   1.00000  Uiso   1.00
C016   C     0.64923   0.83006   0.13598   1.00000  Uiso   1.00
C017   C     0.83464   0.64470   0.13581   1.00000  Uiso   1.00
C018   C     0.91891   0.79338   0.13611   1.00000  Uiso   1.00
C019   C     0.50293   0.91206   0.13602   1.00000  Uiso   1.00
C020   C     0.91657   0.49836   0.13558   1.00000  Uiso   1.00
N001   N     0.66921   0.33211   0.13521   1.00000  Uiso   1.00
N002   N     0.33668   0.33217   0.13524   1.00000  Uiso   1.00
N003   N     0.33679   0.66461   0.13579   1.00000  Uiso   1.00
N004   N     0.66906   0.66462   0.13575   1.00000  Uiso   1.00
N005   N     0.43346   0.52946   0.31673   1.00000  Uiso   1.00
Fe001  Fe    0.50304   0.49828   0.13541   1.00000  Uiso   1.00
O001   O     0.54062   0.46690   0.28536   1.00000  Uiso   1.00
O002   O     0.43751   0.62197   0.36448   1.00000  Uiso   1.00
O003   O     0.27567   0.48763   0.29237   1.00000  Uiso   1.00
H001   H     0.20603   0.55312   0.32068   1.00000  Uiso   1.00
loop_
_geom_bond_atom_site_label_1
_geom_bond_atom_site_label_2
_geom_bond_distance
_geom_bond_site_symmetry_2
_ccdc_geom_bond_type
C001   C002    1.408   .     D
C001   C003    1.408   .     S
C001   C019    1.450   1_545 S
C002   C008    1.436   .     S
C002   N002    1.400   .     S
C003   C005    1.436   .     D
C003   N001    1.399   .     S
C004   C005    1.410   1_565 S
C004   C016    1.436   .     D
C004   C018    1.437   .     S
C005   C004    1.410   1_545 S
C005   C006    1.437   .     S
C006   C007    1.435   .     S
C006   C009    1.410   1_655 D
C007   C020    1.409   .     S
C007   N001    1.399   .     D
C008   C009    1.437   .     S
C008   C014    1.410   1_545 D
C009   C006    1.410   1_455 D
C009   C010    1.436   .     S
C010   C011    1.408   .     S
C010   N002    1.399   .     D
C011   C012    1.408   .     S
C011   C020    1.451   1_455 D
C012   C015    1.435   .     S
C012   N003    1.401   .     D
C013   C014    1.436   .     S
C013   C019    1.409   .     D
C013   N003    1.400   .     S
C014   C008    1.410   1_565 D
C014   C015    1.437   .     S
C015   C018    1.411   1_455 D
C016   C019    1.408   .     S
C016   N004    1.399   .     S
C017   C018    1.435   .     S
C017   C020    1.408   .     S
C017   N004    1.400   .     D
C018   C015    1.411   1_655 D
C019   C001    1.450   1_565 S
C020   C011    1.451   1_655 D
N001   Fe001   1.973   .     S
N002   Fe001   1.974   .     S
N003   Fe001   1.975   .     S
N004   Fe001   1.974   .     S
N005   O001    1.217   .     D
N005   O002    1.233   .     S
N005   O003    1.455   .     S
O003   H001    0.983   .     S
