data_e-0.6-opt
_audit_creation_date              2024-12-22
_audit_creation_method            'Materials Studio'
_symmetry_space_group_name_H-M    'P1'
_symmetry_Int_Tables_number       1
_symmetry_cell_setting            triclinic
loop_
_symmetry_equiv_pos_as_xyz
  x,y,z
_cell_length_a                    8.3976
_cell_length_b                    8.3976
_cell_length_c                    20.0444
_cell_angle_alpha                 90.0000
_cell_angle_beta                  90.0000
_cell_angle_gamma                 90.0000
loop_
_atom_site_label
_atom_site_type_symbol
_atom_site_fract_x
_atom_site_fract_y
_atom_site_fract_z
_atom_site_U_iso_or_equiv
_atom_site_adp_type
_atom_site_occupancy
C001   C     0.50150   0.08456   0.14033   1.00000  Uiso   1.00
C002   C     0.35483   0.16631   0.14003   1.00000  Uiso   1.00
C003   C     0.64819   0.16623   0.13957   1.00000  Uiso   1.00
C004   C     0.79685   0.91471   0.13719   1.00000  Uiso   1.00
C005   C     0.79678   0.08190   0.13752   1.00000  Uiso   1.00
C006   C     0.91783   0.20300   0.13723   1.00000  Uiso   1.00
C007   C     0.83330   0.35160   0.13878   1.00000  Uiso   1.00
C008   C     0.20628   0.08189   0.13783   1.00000  Uiso   1.00
C009   C     0.08505   0.20300   0.13728   1.00000  Uiso   1.00
C010   C     0.16928   0.35161   0.13888   1.00000  Uiso   1.00
C011   C     0.08758   0.49822   0.13856   1.00000  Uiso   1.00
C012   C     0.16926   0.64489   0.13809   1.00000  Uiso   1.00
C013   C     0.35484   0.83025   0.13936   1.00000  Uiso   1.00
C014   C     0.20630   0.91466   0.13758   1.00000  Uiso   1.00
C015   C     0.08509   0.79352   0.13679   1.00000  Uiso   1.00
C016   C     0.64827   0.83032   0.13875   1.00000  Uiso   1.00
C017   C     0.83338   0.64494   0.13793   1.00000  Uiso   1.00
C018   C     0.91791   0.79359   0.13669   1.00000  Uiso   1.00
C019   C     0.50155   0.91193   0.13991   1.00000  Uiso   1.00
C020   C     0.91507   0.49826   0.13856   1.00000  Uiso   1.00
N001   N     0.66873   0.33092   0.14006   1.00000  Uiso   1.00
N002   N     0.33391   0.33108   0.14067   1.00000  Uiso   1.00
N003   N     0.33386   0.66545   0.13952   1.00000  Uiso   1.00
N004   N     0.66891   0.66578   0.13859   1.00000  Uiso   1.00
N005   N     0.43527   0.53435   0.29491   1.00000  Uiso   1.00
Fe001  Fe    0.50037   0.49879   0.14988   1.00000  Uiso   1.00
O001   O     0.52679   0.51490   0.24544   1.00000  Uiso   1.00
O002   O     0.47715   0.56856   0.35129   1.00000  Uiso   1.00
O003   O     0.27063   0.51184   0.28140   1.00000  Uiso   1.00
H001   H     0.22195   0.53121   0.32552   1.00000  Uiso   1.00
loop_
_geom_bond_atom_site_label_1
_geom_bond_atom_site_label_2
_geom_bond_distance
_geom_bond_site_symmetry_2
_ccdc_geom_bond_type
C001   C002    1.410   .     D
C001   C003    1.410   .     S
C001   C019    1.450   1_545 S
C002   C008    1.436   .     S
C002   N002    1.395   .     S
C003   C005    1.435   .     D
C003   N001    1.394   .     S
C004   C005    1.404   1_565 S
C004   C016    1.435   .     D
C004   C018    1.438   .     S
C005   C004    1.404   1_545 S
C005   C006    1.438   .     S
C006   C007    1.436   .     S
C006   C009    1.404   1_655 D
C007   C020    1.410   .     S
C007   N001    1.393   .     D
C008   C009    1.439   .     S
C008   C014    1.404   1_545 D
C009   C006    1.404   1_455 D
C009   C010    1.435   .     S
C010   C011    1.409   .     S
C010   N002    1.394   .     D
C011   C012    1.410   .     S
C011   C020    1.449   1_455 D
C012   C015    1.435   .     S
C012   N003    1.393   .     D
C013   C014    1.435   .     S
C013   C019    1.410   .     D
C013   N003    1.395   .     S
C014   C008    1.404   1_565 D
C014   C015    1.439   .     S
C015   C018    1.404   1_455 D
C016   C019    1.410   .     S
C016   N004    1.393   .     S
C017   C018    1.436   .     S
C017   C020    1.410   .     S
C017   N004    1.392   .     D
C018   C015    1.404   1_655 D
C019   C001    1.450   1_565 S
C020   C011    1.449   1_655 D
N001   Fe001   2.006   .     S
N002   Fe001   1.993   .     S
N003   Fe001   1.989   .     S
N004   Fe001   2.005   .     S
N005   O001    1.265   .     S
N005   O002    1.218   .     D
N005   O003    1.421   .     S
Fe001  O001    1.933   .     S
O003   H001    0.988   .     S
