data_e+0.8-opt
_audit_creation_date              2024-12-22
_audit_creation_method            'Materials Studio'
_symmetry_space_group_name_H-M    'P1'
_symmetry_Int_Tables_number       1
_symmetry_cell_setting            triclinic
loop_
_symmetry_equiv_pos_as_xyz
  x,y,z
_cell_length_a                    8.3964
_cell_length_b                    8.3964
_cell_length_c                    20.0417
_cell_angle_alpha                 90.0000
_cell_angle_beta                  90.0000
_cell_angle_gamma                 90.0000
loop_
_atom_site_label
_atom_site_type_symbol
_atom_site_fract_x
_atom_site_fract_y
_atom_site_fract_z
_atom_site_U_iso_or_equiv
_atom_site_adp_type
_atom_site_occupancy
C001   C     0.49857   0.07233   0.13638   1.00000  Uiso   1.00
C002   C     0.35213   0.15437   0.13613   1.00000  Uiso   1.00
C003   C     0.64501   0.15429   0.13597   1.00000  Uiso   1.00
C004   C     0.79363   0.90267   0.13570   1.00000  Uiso   1.00
C005   C     0.79403   0.06951   0.13562   1.00000  Uiso   1.00
C006   C     0.91514   0.19045   0.13553   1.00000  Uiso   1.00
C007   C     0.83070   0.33933   0.13583   1.00000  Uiso   1.00
C008   C     0.20308   0.06957   0.13567   1.00000  Uiso   1.00
C009   C     0.08210   0.19050   0.13558   1.00000  Uiso   1.00
C010   C     0.16659   0.33943   0.13598   1.00000  Uiso   1.00
C011   C     0.08492   0.48600   0.13612   1.00000  Uiso   1.00
C012   C     0.16688   0.63237   0.13596   1.00000  Uiso   1.00
C013   C     0.35193   0.81815   0.13631   1.00000  Uiso   1.00
C014   C     0.20337   0.90272   0.13561   1.00000  Uiso   1.00
C015   C     0.08185   0.78137   0.13540   1.00000  Uiso   1.00
C016   C     0.64508   0.81822   0.13647   1.00000  Uiso   1.00
C017   C     0.83041   0.63234   0.13608   1.00000  Uiso   1.00
C018   C     0.91527   0.78128   0.13547   1.00000  Uiso   1.00
C019   C     0.49852   0.89983   0.13661   1.00000  Uiso   1.00
C020   C     0.91237   0.48596   0.13612   1.00000  Uiso   1.00
N001   N     0.66590   0.31879   0.13615   1.00000  Uiso   1.00
N002   N     0.33135   0.31884   0.13651   1.00000  Uiso   1.00
N003   N     0.33122   0.65326   0.13691   1.00000  Uiso   1.00
N004   N     0.66584   0.65311   0.13712   1.00000  Uiso   1.00
N005   N     0.50528   0.47355   0.24369   1.00000  Uiso   1.00
Fe001  Fe    0.49912   0.48863   0.14239   1.00000  Uiso   1.00
O001   O     0.48446   0.60294   0.28073   1.00000  Uiso   1.00
H001   H     0.41852   0.38769   0.25100   1.00000  Uiso   1.00
H002   H     0.61644   0.42216   0.24959   1.00000  Uiso   1.00
loop_
_geom_bond_atom_site_label_1
_geom_bond_atom_site_label_2
_geom_bond_distance
_geom_bond_site_symmetry_2
_ccdc_geom_bond_type
C001   C002    1.409   .     D
C001   C003    1.409   .     S
C001   C019    1.448   1_545 S
C002   C008    1.440   .     S
C002   N002    1.392   .     S
C003   C005    1.440   .     D
C003   N001    1.392   .     S
C004   C005    1.401   1_565 S
C004   C016    1.435   .     D
C004   C018    1.443   .     S
C005   C004    1.401   1_545 S
C005   C006    1.437   .     S
C006   C007    1.437   .     S
C006   C009    1.402   1_655 D
C007   C020    1.409   .     S
C007   N001    1.394   .     D
C008   C009    1.436   .     S
C008   C014    1.401   1_545 D
C009   C006    1.402   1_455 D
C009   C010    1.438   .     S
C010   C011    1.409   .     S
C010   N002    1.394   .     D
C011   C012    1.409   .     S
C011   C020    1.449   1_455 D
C012   C015    1.440   .     S
C012   N003    1.391   .     D
C013   C014    1.435   .     S
C013   C019    1.409   .     D
C013   N003    1.395   .     S
C014   C008    1.401   1_565 D
C014   C015    1.442   .     S
C015   C018    1.399   1_455 D
C016   C019    1.409   .     S
C016   N004    1.397   .     S
C017   C018    1.439   .     S
C017   C020    1.409   .     S
C017   N004    1.393   .     D
C018   C015    1.399   1_655 D
C019   C001    1.448   1_565 S
C020   C011    1.449   1_655 D
N001   Fe001   2.003   .     S
N002   Fe001   2.008   .     S
N003   Fe001   1.977   .     S
N004   Fe001   1.969   .     S
N005   Fe001   2.035   .     S
N005   O001    1.327   .     S
N005   H001    1.035   .     S
N005   H002    1.035   .     S
