data_e-0.4-opt
_audit_creation_date              2024-12-22
_audit_creation_method            'Materials Studio'
_symmetry_space_group_name_H-M    'P1'
_symmetry_Int_Tables_number       1
_symmetry_cell_setting            triclinic
loop_
_symmetry_equiv_pos_as_xyz
  x,y,z
_cell_length_a                    8.3964
_cell_length_b                    8.3964
_cell_length_c                    20.0417
_cell_angle_alpha                 90.0000
_cell_angle_beta                  90.0000
_cell_angle_gamma                 90.0000
loop_
_atom_site_label
_atom_site_type_symbol
_atom_site_fract_x
_atom_site_fract_y
_atom_site_fract_z
_atom_site_U_iso_or_equiv
_atom_site_adp_type
_atom_site_occupancy
C001   C     0.49857   0.07178   0.13663   1.00000  Uiso   1.00
C002   C     0.35208   0.15374   0.13622   1.00000  Uiso   1.00
C003   C     0.64507   0.15365   0.13605   1.00000  Uiso   1.00
C004   C     0.79348   0.90198   0.13577   1.00000  Uiso   1.00
C005   C     0.79389   0.06923   0.13554   1.00000  Uiso   1.00
C006   C     0.91497   0.19012   0.13537   1.00000  Uiso   1.00
C007   C     0.83073   0.33889   0.13580   1.00000  Uiso   1.00
C008   C     0.20323   0.06932   0.13561   1.00000  Uiso   1.00
C009   C     0.08234   0.19016   0.13544   1.00000  Uiso   1.00
C010   C     0.16668   0.33902   0.13599   1.00000  Uiso   1.00
C011   C     0.08497   0.48552   0.13623   1.00000  Uiso   1.00
C012   C     0.16688   0.63197   0.13602   1.00000  Uiso   1.00
C013   C     0.35182   0.81760   0.13652   1.00000  Uiso   1.00
C014   C     0.20348   0.90205   0.13567   1.00000  Uiso   1.00
C015   C     0.08203   0.78093   0.13541   1.00000  Uiso   1.00
C016   C     0.64515   0.81764   0.13677   1.00000  Uiso   1.00
C017   C     0.83050   0.63193   0.13620   1.00000  Uiso   1.00
C018   C     0.91512   0.78080   0.13550   1.00000  Uiso   1.00
C019   C     0.49850   0.89922   0.13700   1.00000  Uiso   1.00
C020   C     0.91243   0.48547   0.13623   1.00000  Uiso   1.00
N001   N     0.66571   0.31847   0.13599   1.00000  Uiso   1.00
N002   N     0.33162   0.31850   0.13638   1.00000  Uiso   1.00
N003   N     0.33118   0.65248   0.13676   1.00000  Uiso   1.00
N004   N     0.66589   0.65225   0.13716   1.00000  Uiso   1.00
N005   N     0.50544   0.47488   0.24444   1.00000  Uiso   1.00
Fe001  Fe    0.49946   0.48705   0.14244   1.00000  Uiso   1.00
O001   O     0.48404   0.61004   0.27515   1.00000  Uiso   1.00
H001   H     0.41745   0.39049   0.25291   1.00000  Uiso   1.00
H002   H     0.61700   0.42448   0.25141   1.00000  Uiso   1.00
loop_
_geom_bond_atom_site_label_1
_geom_bond_atom_site_label_2
_geom_bond_distance
_geom_bond_site_symmetry_2
_ccdc_geom_bond_type
C001   C002    1.409   .     D
C001   C003    1.409   .     S
C001   C019    1.449   1_545 S
C002   C008    1.437   .     S
C002   N002    1.394   .     S
C003   C005    1.437   .     D
C003   N001    1.395   .     S
C004   C005    1.404   1_565 S
C004   C016    1.433   .     D
C004   C018    1.442   .     S
C005   C004    1.404   1_545 S
C005   C006    1.437   .     S
C006   C007    1.436   .     S
C006   C009    1.405   1_655 D
C007   C020    1.409   .     S
C007   N001    1.396   .     D
C008   C009    1.435   .     S
C008   C014    1.405   1_545 D
C009   C006    1.405   1_455 D
C009   C010    1.437   .     S
C010   C011    1.409   .     S
C010   N002    1.396   .     D
C011   C012    1.409   .     S
C011   C020    1.449   1_455 D
C012   C015    1.439   .     S
C012   N003    1.390   .     D
C013   C014    1.433   .     S
C013   C019    1.409   .     D
C013   N003    1.397   .     S
C014   C008    1.405   1_565 D
C014   C015    1.440   .     S
C015   C018    1.401   1_455 D
C016   C019    1.409   .     S
C016   N004    1.399   .     S
C017   C018    1.438   .     S
C017   C020    1.409   .     S
C017   N004    1.393   .     D
C018   C015    1.401   1_655 D
C019   C001    1.449   1_565 S
C020   C011    1.449   1_655 D
N001   Fe001   1.992   .     S
N002   Fe001   2.001   .     S
N003   Fe001   1.985   .     S
N004   Fe001   1.972   .     S
N005   Fe001   2.048   .     S
N005   O001    1.303   .     S
N005   H001    1.038   .     S
N005   H002    1.037   .     S
