data_e+0.0-opt
_audit_creation_date              2024-12-22
_audit_creation_method            'Materials Studio'
_symmetry_space_group_name_H-M    'P1'
_symmetry_Int_Tables_number       1
_symmetry_cell_setting            triclinic
loop_
_symmetry_equiv_pos_as_xyz
  x,y,z
_cell_length_a                    8.3964
_cell_length_b                    8.3964
_cell_length_c                    20.0417
_cell_angle_alpha                 90.0000
_cell_angle_beta                  90.0000
_cell_angle_gamma                 90.0000
loop_
_atom_site_label
_atom_site_type_symbol
_atom_site_fract_x
_atom_site_fract_y
_atom_site_fract_z
_atom_site_U_iso_or_equiv
_atom_site_adp_type
_atom_site_occupancy
C001   C     0.49856   0.07214   0.13654   1.00000  Uiso   1.00
C002   C     0.35208   0.15415   0.13619   1.00000  Uiso   1.00
C003   C     0.64505   0.15405   0.13603   1.00000  Uiso   1.00
C004   C     0.79353   0.90236   0.13577   1.00000  Uiso   1.00
C005   C     0.79395   0.06950   0.13561   1.00000  Uiso   1.00
C006   C     0.91502   0.19036   0.13550   1.00000  Uiso   1.00
C007   C     0.83071   0.33918   0.13586   1.00000  Uiso   1.00
C008   C     0.20316   0.06957   0.13567   1.00000  Uiso   1.00
C009   C     0.08224   0.19041   0.13556   1.00000  Uiso   1.00
C010   C     0.16663   0.33931   0.13603   1.00000  Uiso   1.00
C011   C     0.08492   0.48585   0.13625   1.00000  Uiso   1.00
C012   C     0.16688   0.63225   0.13607   1.00000  Uiso   1.00
C013   C     0.35186   0.81796   0.13648   1.00000  Uiso   1.00
C014   C     0.20343   0.90243   0.13568   1.00000  Uiso   1.00
C015   C     0.08196   0.78122   0.13545   1.00000  Uiso   1.00
C016   C     0.64511   0.81801   0.13668   1.00000  Uiso   1.00
C017   C     0.83044   0.63221   0.13619   1.00000  Uiso   1.00
C018   C     0.91516   0.78111   0.13552   1.00000  Uiso   1.00
C019   C     0.49850   0.89963   0.13687   1.00000  Uiso   1.00
C020   C     0.91241   0.48581   0.13625   1.00000  Uiso   1.00
N001   N     0.66579   0.31874   0.13603   1.00000  Uiso   1.00
N002   N     0.33148   0.31879   0.13640   1.00000  Uiso   1.00
N003   N     0.33123   0.65291   0.13688   1.00000  Uiso   1.00
N004   N     0.66582   0.65273   0.13717   1.00000  Uiso   1.00
N005   N     0.50542   0.47375   0.24398   1.00000  Uiso   1.00
Fe001  Fe    0.49928   0.48790   0.14240   1.00000  Uiso   1.00
O001   O     0.48419   0.60604   0.27768   1.00000  Uiso   1.00
H001   H     0.41800   0.38847   0.25166   1.00000  Uiso   1.00
H002   H     0.61691   0.42287   0.25023   1.00000  Uiso   1.00
loop_
_geom_bond_atom_site_label_1
_geom_bond_atom_site_label_2
_geom_bond_distance
_geom_bond_site_symmetry_2
_ccdc_geom_bond_type
C001   C002    1.410   .     D
C001   C003    1.409   .     S
C001   C019    1.448   1_545 S
C002   C008    1.438   .     S
C002   N002    1.393   .     S
C003   C005    1.438   .     D
C003   N001    1.394   .     S
C004   C005    1.403   1_565 S
C004   C016    1.434   .     D
C004   C018    1.442   .     S
C005   C004    1.403   1_545 S
C005   C006    1.436   .     S
C006   C007    1.436   .     S
C006   C009    1.404   1_655 D
C007   C020    1.409   .     S
C007   N001    1.395   .     D
C008   C009    1.435   .     S
C008   C014    1.403   1_545 D
C009   C006    1.404   1_455 D
C009   C010    1.437   .     S
C010   C011    1.409   .     S
C010   N002    1.395   .     D
C011   C012    1.409   .     S
C011   C020    1.448   1_455 D
C012   C015    1.440   .     S
C012   N003    1.391   .     D
C013   C014    1.434   .     S
C013   C019    1.409   .     D
C013   N003    1.397   .     S
C014   C008    1.403   1_565 D
C014   C015    1.441   .     S
C015   C018    1.400   1_455 D
C016   C019    1.409   .     S
C016   N004    1.399   .     S
C017   C018    1.438   .     S
C017   C020    1.409   .     S
C017   N004    1.393   .     D
C018   C015    1.400   1_655 D
C019   C001    1.448   1_565 S
C020   C011    1.448   1_655 D
N001   Fe001   1.997   .     S
N002   Fe001   2.004   .     S
N003   Fe001   1.981   .     S
N004   Fe001   1.970   .     S
N005   Fe001   2.040   .     S
N005   O001    1.312   .     S
N005   H001    1.037   .     S
N005   H002    1.037   .     S
