data_e-0.2-opt
_audit_creation_date              2024-12-22
_audit_creation_method            'Materials Studio'
_symmetry_space_group_name_H-M    'P1'
_symmetry_Int_Tables_number       1
_symmetry_cell_setting            triclinic
loop_
_symmetry_equiv_pos_as_xyz
  x,y,z
_cell_length_a                    8.3964
_cell_length_b                    8.3964
_cell_length_c                    20.0417
_cell_angle_alpha                 90.0000
_cell_angle_beta                  90.0000
_cell_angle_gamma                 90.0000
loop_
_atom_site_label
_atom_site_type_symbol
_atom_site_fract_x
_atom_site_fract_y
_atom_site_fract_z
_atom_site_U_iso_or_equiv
_atom_site_adp_type
_atom_site_occupancy
C001   C     0.49856   0.07204   0.13656   1.00000  Uiso   1.00
C002   C     0.35205   0.15402   0.13619   1.00000  Uiso   1.00
C003   C     0.64508   0.15393   0.13603   1.00000  Uiso   1.00
C004   C     0.79349   0.90224   0.13578   1.00000  Uiso   1.00
C005   C     0.79391   0.06945   0.13559   1.00000  Uiso   1.00
C006   C     0.91497   0.19032   0.13546   1.00000  Uiso   1.00
C007   C     0.83072   0.33910   0.13584   1.00000  Uiso   1.00
C008   C     0.20319   0.06954   0.13566   1.00000  Uiso   1.00
C009   C     0.08230   0.19037   0.13553   1.00000  Uiso   1.00
C010   C     0.16664   0.33922   0.13602   1.00000  Uiso   1.00
C011   C     0.08493   0.48577   0.13625   1.00000  Uiso   1.00
C012   C     0.16687   0.63222   0.13606   1.00000  Uiso   1.00
C013   C     0.35182   0.81786   0.13650   1.00000  Uiso   1.00
C014   C     0.20346   0.90231   0.13569   1.00000  Uiso   1.00
C015   C     0.08197   0.78113   0.13545   1.00000  Uiso   1.00
C016   C     0.64514   0.81791   0.13671   1.00000  Uiso   1.00
C017   C     0.83047   0.63217   0.13620   1.00000  Uiso   1.00
C018   C     0.91515   0.78101   0.13552   1.00000  Uiso   1.00
C019   C     0.49850   0.89950   0.13691   1.00000  Uiso   1.00
C020   C     0.91241   0.48572   0.13624   1.00000  Uiso   1.00
N001   N     0.66576   0.31868   0.13599   1.00000  Uiso   1.00
N002   N     0.33153   0.31872   0.13637   1.00000  Uiso   1.00
N003   N     0.33121   0.65278   0.13683   1.00000  Uiso   1.00
N004   N     0.66583   0.65258   0.13716   1.00000  Uiso   1.00
N005   N     0.50545   0.47390   0.24422   1.00000  Uiso   1.00
Fe001  Fe    0.49936   0.48756   0.14240   1.00000  Uiso   1.00
O001   O     0.48410   0.60740   0.27662   1.00000  Uiso   1.00
H001   H     0.41778   0.38896   0.25214   1.00000  Uiso   1.00
H002   H     0.61702   0.42327   0.25070   1.00000  Uiso   1.00
loop_
_geom_bond_atom_site_label_1
_geom_bond_atom_site_label_2
_geom_bond_distance
_geom_bond_site_symmetry_2
_ccdc_geom_bond_type
C001   C002    1.410   .     D
C001   C003    1.409   .     S
C001   C019    1.449   1_545 S
C002   C008    1.437   .     S
C002   N002    1.394   .     S
C003   C005    1.437   .     D
C003   N001    1.394   .     S
C004   C005    1.404   1_565 S
C004   C016    1.433   .     D
C004   C018    1.442   .     S
C005   C004    1.404   1_545 S
C005   C006    1.436   .     S
C006   C007    1.436   .     S
C006   C009    1.405   1_655 D
C007   C020    1.409   .     S
C007   N001    1.396   .     D
C008   C009    1.435   .     S
C008   C014    1.404   1_545 D
C009   C006    1.405   1_455 D
C009   C010    1.437   .     S
C010   C011    1.409   .     S
C010   N002    1.395   .     D
C011   C012    1.409   .     S
C011   C020    1.449   1_455 D
C012   C015    1.439   .     S
C012   N003    1.391   .     D
C013   C014    1.433   .     S
C013   C019    1.409   .     D
C013   N003    1.397   .     S
C014   C008    1.404   1_565 D
C014   C015    1.441   .     S
C015   C018    1.401   1_455 D
C016   C019    1.409   .     S
C016   N004    1.399   .     S
C017   C018    1.438   .     S
C017   C020    1.409   .     S
C017   N004    1.393   .     D
C018   C015    1.401   1_655 D
C019   C001    1.449   1_565 S
C020   C011    1.449   1_655 D
N001   Fe001   1.995   .     S
N002   Fe001   2.002   .     S
N003   Fe001   1.982   .     S
N004   Fe001   1.971   .     S
N005   Fe001   2.044   .     S
N005   O001    1.308   .     S
N005   H001    1.037   .     S
N005   H002    1.037   .     S
