data_e-0.6-opt
_audit_creation_date              2024-12-22
_audit_creation_method            'Materials Studio'
_symmetry_space_group_name_H-M    'P1'
_symmetry_Int_Tables_number       1
_symmetry_cell_setting            triclinic
loop_
_symmetry_equiv_pos_as_xyz
  x,y,z
_cell_length_a                    8.3964
_cell_length_b                    8.3964
_cell_length_c                    20.0417
_cell_angle_alpha                 90.0000
_cell_angle_beta                  90.0000
_cell_angle_gamma                 90.0000
loop_
_atom_site_label
_atom_site_type_symbol
_atom_site_fract_x
_atom_site_fract_y
_atom_site_fract_z
_atom_site_U_iso_or_equiv
_atom_site_adp_type
_atom_site_occupancy
C001   C     0.49857   0.07168   0.13659   1.00000  Uiso   1.00
C002   C     0.35205   0.15368   0.13618   1.00000  Uiso   1.00
C003   C     0.64510   0.15358   0.13602   1.00000  Uiso   1.00
C004   C     0.79346   0.90189   0.13573   1.00000  Uiso   1.00
C005   C     0.79387   0.06922   0.13548   1.00000  Uiso   1.00
C006   C     0.91494   0.19010   0.13531   1.00000  Uiso   1.00
C007   C     0.83073   0.33883   0.13576   1.00000  Uiso   1.00
C008   C     0.20325   0.06931   0.13555   1.00000  Uiso   1.00
C009   C     0.08237   0.19014   0.13538   1.00000  Uiso   1.00
C010   C     0.16672   0.33897   0.13594   1.00000  Uiso   1.00
C011   C     0.08496   0.48549   0.13616   1.00000  Uiso   1.00
C012   C     0.16688   0.63196   0.13594   1.00000  Uiso   1.00
C013   C     0.35180   0.81752   0.13646   1.00000  Uiso   1.00
C014   C     0.20348   0.90197   0.13560   1.00000  Uiso   1.00
C015   C     0.08204   0.78089   0.13535   1.00000  Uiso   1.00
C016   C     0.64515   0.81755   0.13674   1.00000  Uiso   1.00
C017   C     0.83052   0.63190   0.13614   1.00000  Uiso   1.00
C018   C     0.91510   0.78075   0.13544   1.00000  Uiso   1.00
C019   C     0.49850   0.89913   0.13695   1.00000  Uiso   1.00
C020   C     0.91245   0.48544   0.13617   1.00000  Uiso   1.00
N001   N     0.66565   0.31846   0.13597   1.00000  Uiso   1.00
N002   N     0.33169   0.31848   0.13636   1.00000  Uiso   1.00
N003   N     0.33118   0.65236   0.13667   1.00000  Uiso   1.00
N004   N     0.66588   0.65212   0.13712   1.00000  Uiso   1.00
N005   N     0.50548   0.47488   0.24493   1.00000  Uiso   1.00
Fe001  Fe    0.49952   0.48671   0.14252   1.00000  Uiso   1.00
O001   O     0.48398   0.61108   0.27437   1.00000  Uiso   1.00
H001   H     0.41722   0.39083   0.25365   1.00000  Uiso   1.00
H002   H     0.61714   0.42474   0.25214   1.00000  Uiso   1.00
loop_
_geom_bond_atom_site_label_1
_geom_bond_atom_site_label_2
_geom_bond_distance
_geom_bond_site_symmetry_2
_ccdc_geom_bond_type
C001   C002    1.410   .     D
C001   C003    1.410   .     S
C001   C019    1.449   1_545 S
C002   C008    1.436   .     S
C002   N002    1.394   .     S
C003   C005    1.436   .     D
C003   N001    1.395   .     S
C004   C005    1.405   1_565 S
C004   C016    1.433   .     D
C004   C018    1.441   .     S
C005   C004    1.405   1_545 S
C005   C006    1.437   .     S
C006   C007    1.435   .     S
C006   C009    1.406   1_655 D
C007   C020    1.409   .     S
C007   N001    1.397   .     D
C008   C009    1.435   .     S
C008   C014    1.405   1_545 D
C009   C006    1.406   1_455 D
C009   C010    1.436   .     S
C010   C011    1.409   .     S
C010   N002    1.396   .     D
C011   C012    1.409   .     S
C011   C020    1.448   1_455 D
C012   C015    1.439   .     S
C012   N003    1.390   .     D
C013   C014    1.433   .     S
C013   C019    1.410   .     D
C013   N003    1.397   .     S
C014   C008    1.405   1_565 D
C014   C015    1.440   .     S
C015   C018    1.402   1_455 D
C016   C019    1.409   .     S
C016   N004    1.400   .     S
C017   C018    1.437   .     S
C017   C020    1.409   .     S
C017   N004    1.393   .     D
C018   C015    1.402   1_655 D
C019   C001    1.449   1_565 S
C020   C011    1.448   1_655 D
N001   Fe001   1.990   .     S
N002   Fe001   1.999   .     S
N003   Fe001   1.986   .     S
N004   Fe001   1.973   .     S
N005   Fe001   2.055   .     S
N005   O001    1.299   .     S
N005   H001    1.038   .     S
N005   H002    1.038   .     S
