data_e-0.8-opt
_audit_creation_date              2024-12-22
_audit_creation_method            'Materials Studio'
_symmetry_space_group_name_H-M    'P1'
_symmetry_Int_Tables_number       1
_symmetry_cell_setting            triclinic
loop_
_symmetry_equiv_pos_as_xyz
  x,y,z
_cell_length_a                    8.3964
_cell_length_b                    8.3964
_cell_length_c                    20.0417
_cell_angle_alpha                 90.0000
_cell_angle_beta                  90.0000
_cell_angle_gamma                 90.0000
loop_
_atom_site_label
_atom_site_type_symbol
_atom_site_fract_x
_atom_site_fract_y
_atom_site_fract_z
_atom_site_U_iso_or_equiv
_atom_site_adp_type
_atom_site_occupancy
C001   C     0.49859   0.07141   0.13661   1.00000  Uiso   1.00
C002   C     0.35210   0.15341   0.13619   1.00000  Uiso   1.00
C003   C     0.64507   0.15332   0.13602   1.00000  Uiso   1.00
C004   C     0.79349   0.90170   0.13562   1.00000  Uiso   1.00
C005   C     0.79388   0.06893   0.13537   1.00000  Uiso   1.00
C006   C     0.91501   0.18986   0.13515   1.00000  Uiso   1.00
C007   C     0.83075   0.33865   0.13569   1.00000  Uiso   1.00
C008   C     0.20325   0.06901   0.13544   1.00000  Uiso   1.00
C009   C     0.08235   0.18990   0.13522   1.00000  Uiso   1.00
C010   C     0.16676   0.33877   0.13589   1.00000  Uiso   1.00
C011   C     0.08500   0.48525   0.13606   1.00000  Uiso   1.00
C012   C     0.16690   0.63170   0.13584   1.00000  Uiso   1.00
C013   C     0.35183   0.81725   0.13640   1.00000  Uiso   1.00
C014   C     0.20348   0.90178   0.13548   1.00000  Uiso   1.00
C015   C     0.08200   0.78068   0.13521   1.00000  Uiso   1.00
C016   C     0.64515   0.81728   0.13673   1.00000  Uiso   1.00
C017   C     0.83056   0.63164   0.13608   1.00000  Uiso   1.00
C018   C     0.91518   0.78054   0.13531   1.00000  Uiso   1.00
C019   C     0.49852   0.89884   0.13694   1.00000  Uiso   1.00
C020   C     0.91248   0.48520   0.13608   1.00000  Uiso   1.00
N001   N     0.66565   0.31821   0.13606   1.00000  Uiso   1.00
N002   N     0.33174   0.31818   0.13646   1.00000  Uiso   1.00
N003   N     0.33111   0.65215   0.13662   1.00000  Uiso   1.00
N004   N     0.66602   0.65187   0.13717   1.00000  Uiso   1.00
N005   N     0.50540   0.47586   0.24538   1.00000  Uiso   1.00
Fe001  Fe    0.49967   0.48629   0.14264   1.00000  Uiso   1.00
O001   O     0.48398   0.61357   0.27323   1.00000  Uiso   1.00
H001   H     0.41677   0.39251   0.25464   1.00000  Uiso   1.00
H002   H     0.61700   0.42595   0.25310   1.00000  Uiso   1.00
loop_
_geom_bond_atom_site_label_1
_geom_bond_atom_site_label_2
_geom_bond_distance
_geom_bond_site_symmetry_2
_ccdc_geom_bond_type
C001   C002    1.410   .     D
C001   C003    1.409   .     S
C001   C019    1.449   1_545 S
C002   C008    1.437   .     S
C002   N002    1.394   .     S
C003   C005    1.436   .     D
C003   N001    1.395   .     S
C004   C005    1.404   1_565 S
C004   C016    1.433   .     D
C004   C018    1.442   .     S
C005   C004    1.404   1_545 S
C005   C006    1.437   .     S
C006   C007    1.436   .     S
C006   C009    1.405   1_655 D
C007   C020    1.409   .     S
C007   N001    1.397   .     D
C008   C009    1.436   .     S
C008   C014    1.404   1_545 D
C009   C006    1.405   1_455 D
C009   C010    1.437   .     S
C010   C011    1.409   .     S
C010   N002    1.396   .     D
C011   C012    1.409   .     S
C011   C020    1.449   1_455 D
C012   C015    1.440   .     S
C012   N003    1.389   .     D
C013   C014    1.434   .     S
C013   C019    1.409   .     D
C013   N003    1.397   .     S
C014   C008    1.404   1_565 D
C014   C015    1.440   .     S
C015   C018    1.401   1_455 D
C016   C019    1.409   .     S
C016   N004    1.400   .     S
C017   C018    1.438   .     S
C017   C020    1.409   .     S
C017   N004    1.392   .     D
C018   C015    1.401   1_655 D
C019   C001    1.449   1_565 S
C020   C011    1.449   1_655 D
N001   Fe001   1.988   .     S
N002   Fe001   1.999   .     S
N003   Fe001   1.989   .     S
N004   Fe001   1.974   .     S
N005   Fe001   2.061   .     S
N005   O001    1.297   .     S
N005   H001    1.038   .     S
N005   H002    1.038   .     S
