data_e+1.0-opt
_audit_creation_date              2024-12-22
_audit_creation_method            'Materials Studio'
_symmetry_space_group_name_H-M    'P1'
_symmetry_Int_Tables_number       1
_symmetry_cell_setting            triclinic
loop_
_symmetry_equiv_pos_as_xyz
  x,y,z
_cell_length_a                    8.3964
_cell_length_b                    8.3964
_cell_length_c                    20.0417
_cell_angle_alpha                 90.0000
_cell_angle_beta                  90.0000
_cell_angle_gamma                 90.0000
loop_
_atom_site_label
_atom_site_type_symbol
_atom_site_fract_x
_atom_site_fract_y
_atom_site_fract_z
_atom_site_U_iso_or_equiv
_atom_site_adp_type
_atom_site_occupancy
C001   C     0.49857   0.07227   0.13641   1.00000  Uiso   1.00
C002   C     0.35214   0.15441   0.13615   1.00000  Uiso   1.00
C003   C     0.64499   0.15432   0.13600   1.00000  Uiso   1.00
C004   C     0.79371   0.90269   0.13575   1.00000  Uiso   1.00
C005   C     0.79410   0.06946   0.13567   1.00000  Uiso   1.00
C006   C     0.91518   0.19041   0.13558   1.00000  Uiso   1.00
C007   C     0.83067   0.33931   0.13585   1.00000  Uiso   1.00
C008   C     0.20301   0.06950   0.13571   1.00000  Uiso   1.00
C009   C     0.08205   0.19046   0.13563   1.00000  Uiso   1.00
C010   C     0.16662   0.33940   0.13601   1.00000  Uiso   1.00
C011   C     0.08489   0.48600   0.13615   1.00000  Uiso   1.00
C012   C     0.16690   0.63236   0.13599   1.00000  Uiso   1.00
C013   C     0.35195   0.81806   0.13633   1.00000  Uiso   1.00
C014   C     0.20328   0.90275   0.13565   1.00000  Uiso   1.00
C015   C     0.08185   0.78142   0.13546   1.00000  Uiso   1.00
C016   C     0.64506   0.81814   0.13650   1.00000  Uiso   1.00
C017   C     0.83039   0.63233   0.13610   1.00000  Uiso   1.00
C018   C     0.91528   0.78134   0.13552   1.00000  Uiso   1.00
C019   C     0.49852   0.89984   0.13664   1.00000  Uiso   1.00
C020   C     0.91240   0.48596   0.13614   1.00000  Uiso   1.00
N001   N     0.66584   0.31879   0.13618   1.00000  Uiso   1.00
N002   N     0.33141   0.31883   0.13655   1.00000  Uiso   1.00
N003   N     0.33126   0.65322   0.13693   1.00000  Uiso   1.00
N004   N     0.66582   0.65306   0.13716   1.00000  Uiso   1.00
N005   N     0.50528   0.47355   0.24355   1.00000  Uiso   1.00
Fe001  Fe    0.49916   0.48849   0.14227   1.00000  Uiso   1.00
O001   O     0.48440   0.60342   0.28015   1.00000  Uiso   1.00
H001   H     0.41849   0.38773   0.25101   1.00000  Uiso   1.00
H002   H     0.61646   0.42217   0.24960   1.00000  Uiso   1.00
loop_
_geom_bond_atom_site_label_1
_geom_bond_atom_site_label_2
_geom_bond_distance
_geom_bond_site_symmetry_2
_ccdc_geom_bond_type
C001   C002    1.410   .     D
C001   C003    1.409   .     S
C001   C019    1.448   1_545 S
C002   C008    1.441   .     S
C002   N002    1.391   .     S
C003   C005    1.441   .     D
C003   N001    1.392   .     S
C004   C005    1.400   1_565 S
C004   C016    1.436   .     D
C004   C018    1.442   .     S
C005   C004    1.400   1_545 S
C005   C006    1.437   .     S
C006   C007    1.438   .     S
C006   C009    1.401   1_655 D
C007   C020    1.410   .     S
C007   N001    1.395   .     D
C008   C009    1.436   .     S
C008   C014    1.400   1_545 D
C009   C006    1.401   1_455 D
C009   C010    1.438   .     S
C010   C011    1.409   .     S
C010   N002    1.394   .     D
C011   C012    1.409   .     S
C011   C020    1.448   1_455 D
C012   C015    1.441   .     S
C012   N003    1.391   .     D
C013   C014    1.437   .     S
C013   C019    1.409   .     D
C013   N003    1.395   .     S
C014   C008    1.400   1_565 D
C014   C015    1.441   .     S
C015   C018    1.399   1_455 D
C016   C019    1.409   .     S
C016   N004    1.397   .     S
C017   C018    1.440   .     S
C017   C020    1.409   .     S
C017   N004    1.393   .     D
C018   C015    1.399   1_655 D
C019   C001    1.448   1_565 S
C020   C011    1.448   1_655 D
N001   Fe001   2.001   .     S
N002   Fe001   2.007   .     S
N003   Fe001   1.978   .     S
N004   Fe001   1.969   .     S
N005   Fe001   2.034   .     S
N005   O001    1.326   .     S
N005   H001    1.036   .     S
N005   H002    1.035   .     S
