data_e+0.6-opt
_audit_creation_date              2024-12-22
_audit_creation_method            'Materials Studio'
_symmetry_space_group_name_H-M    'P1'
_symmetry_Int_Tables_number       1
_symmetry_cell_setting            triclinic
loop_
_symmetry_equiv_pos_as_xyz
  x,y,z
_cell_length_a                    8.3964
_cell_length_b                    8.3964
_cell_length_c                    20.0417
_cell_angle_alpha                 90.0000
_cell_angle_beta                  90.0000
_cell_angle_gamma                 90.0000
loop_
_atom_site_label
_atom_site_type_symbol
_atom_site_fract_x
_atom_site_fract_y
_atom_site_fract_z
_atom_site_U_iso_or_equiv
_atom_site_adp_type
_atom_site_occupancy
C001   C     0.49856   0.07231   0.13638   1.00000  Uiso   1.00
C002   C     0.35210   0.15438   0.13614   1.00000  Uiso   1.00
C003   C     0.64504   0.15429   0.13599   1.00000  Uiso   1.00
C004   C     0.79360   0.90263   0.13575   1.00000  Uiso   1.00
C005   C     0.79399   0.06955   0.13567   1.00000  Uiso   1.00
C006   C     0.91512   0.19048   0.13559   1.00000  Uiso   1.00
C007   C     0.83067   0.33932   0.13584   1.00000  Uiso   1.00
C008   C     0.20313   0.06961   0.13572   1.00000  Uiso   1.00
C009   C     0.08212   0.19053   0.13563   1.00000  Uiso   1.00
C010   C     0.16661   0.33943   0.13599   1.00000  Uiso   1.00
C011   C     0.08489   0.48602   0.13611   1.00000  Uiso   1.00
C012   C     0.16689   0.63240   0.13595   1.00000  Uiso   1.00
C013   C     0.35190   0.81815   0.13628   1.00000  Uiso   1.00
C014   C     0.20340   0.90269   0.13565   1.00000  Uiso   1.00
C015   C     0.08188   0.78136   0.13545   1.00000  Uiso   1.00
C016   C     0.64510   0.81823   0.13646   1.00000  Uiso   1.00
C017   C     0.83040   0.63236   0.13607   1.00000  Uiso   1.00
C018   C     0.91524   0.78127   0.13552   1.00000  Uiso   1.00
C019   C     0.49852   0.89985   0.13659   1.00000  Uiso   1.00
C020   C     0.91239   0.48598   0.13612   1.00000  Uiso   1.00
N001   N     0.66586   0.31885   0.13610   1.00000  Uiso   1.00
N002   N     0.33138   0.31892   0.13645   1.00000  Uiso   1.00
N003   N     0.33125   0.65321   0.13682   1.00000  Uiso   1.00
N004   N     0.66581   0.65306   0.13705   1.00000  Uiso   1.00
N005   N     0.50529   0.47350   0.24359   1.00000  Uiso   1.00
Fe001  Fe    0.49909   0.48863   0.14242   1.00000  Uiso   1.00
O001   O     0.48444   0.60295   0.28078   1.00000  Uiso   1.00
H001   H     0.41858   0.38764   0.25095   1.00000  Uiso   1.00
H002   H     0.61641   0.42210   0.24954   1.00000  Uiso   1.00
loop_
_geom_bond_atom_site_label_1
_geom_bond_atom_site_label_2
_geom_bond_distance
_geom_bond_site_symmetry_2
_ccdc_geom_bond_type
C001   C002    1.410   .     D
C001   C003    1.409   .     S
C001   C019    1.448   1_545 S
C002   C008    1.439   .     S
C002   N002    1.392   .     S
C003   C005    1.439   .     D
C003   N001    1.393   .     S
C004   C005    1.402   1_565 S
C004   C016    1.434   .     D
C004   C018    1.443   .     S
C005   C004    1.402   1_545 S
C005   C006    1.437   .     S
C006   C007    1.437   .     S
C006   C009    1.402   1_655 D
C007   C020    1.410   .     S
C007   N001    1.395   .     D
C008   C009    1.436   .     S
C008   C014    1.401   1_545 D
C009   C006    1.402   1_455 D
C009   C010    1.437   .     S
C010   C011    1.409   .     S
C010   N002    1.394   .     D
C011   C012    1.409   .     S
C011   C020    1.448   1_455 D
C012   C015    1.440   .     S
C012   N003    1.391   .     D
C013   C014    1.435   .     S
C013   C019    1.409   .     D
C013   N003    1.396   .     S
C014   C008    1.401   1_565 D
C014   C015    1.442   .     S
C015   C018    1.399   1_455 D
C016   C019    1.409   .     S
C016   N004    1.398   .     S
C017   C018    1.439   .     S
C017   C020    1.409   .     S
C017   N004    1.393   .     D
C018   C015    1.399   1_655 D
C019   C001    1.448   1_565 S
C020   C011    1.448   1_655 D
N001   Fe001   2.002   .     S
N002   Fe001   2.007   .     S
N003   Fe001   1.977   .     S
N004   Fe001   1.969   .     S
N005   Fe001   2.032   .     S
N005   O001    1.330   .     S
N005   H001    1.035   .     S
N005   H002    1.035   .     S
