data_e+0.2-opt
_audit_creation_date              2024-12-22
_audit_creation_method            'Materials Studio'
_symmetry_space_group_name_H-M    'P1'
_symmetry_Int_Tables_number       1
_symmetry_cell_setting            triclinic
loop_
_symmetry_equiv_pos_as_xyz
  x,y,z
_cell_length_a                    8.3964
_cell_length_b                    8.3964
_cell_length_c                    20.0417
_cell_angle_alpha                 90.0000
_cell_angle_beta                  90.0000
_cell_angle_gamma                 90.0000
loop_
_atom_site_label
_atom_site_type_symbol
_atom_site_fract_x
_atom_site_fract_y
_atom_site_fract_z
_atom_site_U_iso_or_equiv
_atom_site_adp_type
_atom_site_occupancy
C001   C     0.49856   0.07224   0.13650   1.00000  Uiso   1.00
C002   C     0.35206   0.15424   0.13618   1.00000  Uiso   1.00
C003   C     0.64507   0.15415   0.13603   1.00000  Uiso   1.00
C004   C     0.79354   0.90247   0.13577   1.00000  Uiso   1.00
C005   C     0.79394   0.06955   0.13564   1.00000  Uiso   1.00
C006   C     0.91504   0.19044   0.13555   1.00000  Uiso   1.00
C007   C     0.83070   0.33924   0.13587   1.00000  Uiso   1.00
C008   C     0.20317   0.06961   0.13570   1.00000  Uiso   1.00
C009   C     0.08221   0.19048   0.13560   1.00000  Uiso   1.00
C010   C     0.16661   0.33935   0.13604   1.00000  Uiso   1.00
C011   C     0.08492   0.48593   0.13622   1.00000  Uiso   1.00
C012   C     0.16688   0.63233   0.13605   1.00000  Uiso   1.00
C013   C     0.35187   0.81807   0.13643   1.00000  Uiso   1.00
C014   C     0.20343   0.90254   0.13568   1.00000  Uiso   1.00
C015   C     0.08194   0.78127   0.13546   1.00000  Uiso   1.00
C016   C     0.64510   0.81813   0.13661   1.00000  Uiso   1.00
C017   C     0.83043   0.63229   0.13617   1.00000  Uiso   1.00
C018   C     0.91518   0.78116   0.13553   1.00000  Uiso   1.00
C019   C     0.49850   0.89972   0.13678   1.00000  Uiso   1.00
C020   C     0.91238   0.48589   0.13622   1.00000  Uiso   1.00
N001   N     0.66582   0.31880   0.13606   1.00000  Uiso   1.00
N002   N     0.33144   0.31886   0.13642   1.00000  Uiso   1.00
N003   N     0.33124   0.65304   0.13688   1.00000  Uiso   1.00
N004   N     0.66581   0.65287   0.13714   1.00000  Uiso   1.00
N005   N     0.50538   0.47359   0.24382   1.00000  Uiso   1.00
Fe001  Fe    0.49921   0.48819   0.14239   1.00000  Uiso   1.00
O001   O     0.48429   0.60474   0.27875   1.00000  Uiso   1.00
H001   H     0.41821   0.38802   0.25128   1.00000  Uiso   1.00
H002   H     0.61677   0.42249   0.24987   1.00000  Uiso   1.00
loop_
_geom_bond_atom_site_label_1
_geom_bond_atom_site_label_2
_geom_bond_distance
_geom_bond_site_symmetry_2
_ccdc_geom_bond_type
C001   C002    1.410   .     D
C001   C003    1.409   .     S
C001   C019    1.449   1_545 S
C002   C008    1.438   .     S
C002   N002    1.393   .     S
C003   C005    1.438   .     D
C003   N001    1.393   .     S
C004   C005    1.403   1_565 S
C004   C016    1.434   .     D
C004   C018    1.442   .     S
C005   C004    1.403   1_545 S
C005   C006    1.437   .     S
C006   C007    1.436   .     S
C006   C009    1.404   1_655 D
C007   C020    1.410   .     S
C007   N001    1.395   .     D
C008   C009    1.436   .     S
C008   C014    1.403   1_545 D
C009   C006    1.404   1_455 D
C009   C010    1.437   .     S
C010   C011    1.409   .     S
C010   N002    1.395   .     D
C011   C012    1.409   .     S
C011   C020    1.449   1_455 D
C012   C015    1.440   .     S
C012   N003    1.391   .     D
C013   C014    1.434   .     S
C013   C019    1.409   .     D
C013   N003    1.396   .     S
C014   C008    1.403   1_565 D
C014   C015    1.441   .     S
C015   C018    1.400   1_455 D
C016   C019    1.409   .     S
C016   N004    1.398   .     S
C017   C018    1.438   .     S
C017   C020    1.409   .     S
C017   N004    1.393   .     D
C018   C015    1.400   1_655 D
C019   C001    1.449   1_565 S
C020   C011    1.449   1_655 D
N001   Fe001   1.999   .     S
N002   Fe001   2.005   .     S
N003   Fe001   1.979   .     S
N004   Fe001   1.970   .     S
N005   Fe001   2.037   .     S
N005   O001    1.317   .     S
N005   H001    1.036   .     S
N005   H002    1.036   .     S
