data_e+0.4-opt
_audit_creation_date              2024-12-22
_audit_creation_method            'Materials Studio'
_symmetry_space_group_name_H-M    'P1'
_symmetry_Int_Tables_number       1
_symmetry_cell_setting            triclinic
loop_
_symmetry_equiv_pos_as_xyz
  x,y,z
_cell_length_a                    8.3949
_cell_length_b                    8.3949
_cell_length_c                    20.0381
_cell_angle_alpha                 90.0000
_cell_angle_beta                  90.0000
_cell_angle_gamma                 90.0000
loop_
_atom_site_label
_atom_site_type_symbol
_atom_site_fract_x
_atom_site_fract_y
_atom_site_fract_z
_atom_site_U_iso_or_equiv
_atom_site_adp_type
_atom_site_occupancy
C001   C     0.50468   0.08049   0.14018   1.00000  Uiso   1.00
C002   C     0.35809   0.16227   0.14068   1.00000  Uiso   1.00
C003   C     0.65113   0.16235   0.13911   1.00000  Uiso   1.00
C004   C     0.80016   0.91049   0.14012   1.00000  Uiso   1.00
C005   C     0.80002   0.07765   0.13914   1.00000  Uiso   1.00
C006   C     0.92099   0.19864   0.13921   1.00000  Uiso   1.00
C007   C     0.83621   0.34754   0.13935   1.00000  Uiso   1.00
C008   C     0.20934   0.07752   0.14000   1.00000  Uiso   1.00
C009   C     0.08814   0.19847   0.14002   1.00000  Uiso   1.00
C010   C     0.17256   0.34729   0.14079   1.00000  Uiso   1.00
C011   C     0.09070   0.49396   0.14050   1.00000  Uiso   1.00
C012   C     0.17271   0.64024   0.13933   1.00000  Uiso   1.00
C013   C     0.35837   0.82591   0.13912   1.00000  Uiso   1.00
C014   C     0.20955   0.91026   0.13926   1.00000  Uiso   1.00
C015   C     0.08832   0.78907   0.13941   1.00000  Uiso   1.00
C016   C     0.65133   0.82609   0.14094   1.00000  Uiso   1.00
C017   C     0.83625   0.64054   0.14130   1.00000  Uiso   1.00
C018   C     0.92110   0.78926   0.14032   1.00000  Uiso   1.00
C019   C     0.50470   0.90793   0.14025   1.00000  Uiso   1.00
C020   C     0.91806   0.49396   0.14067   1.00000  Uiso   1.00
N001   N     0.67188   0.32667   0.13886   1.00000  Uiso   1.00
N002   N     0.33713   0.32699   0.14151   1.00000  Uiso   1.00
N003   N     0.33772   0.66089   0.13850   1.00000  Uiso   1.00
N004   N     0.67154   0.66153   0.14217   1.00000  Uiso   1.00
N005   N     0.49839   0.49634   0.24192   1.00000  Uiso   1.00
Fe001  Fe    0.50316   0.49516   0.14889   1.00000  Uiso   1.00
H001   H     0.51498   0.60982   0.25974   1.00000  Uiso   1.00
H002   H     0.38968   0.45757   0.25890   1.00000  Uiso   1.00
loop_
_geom_bond_atom_site_label_1
_geom_bond_atom_site_label_2
_geom_bond_distance
_geom_bond_site_symmetry_2
_ccdc_geom_bond_type
C001   C002    1.409   .     D
C001   C003    1.409   .     S
C001   C019    1.449   1_545 S
C002   C008    1.437   .     S
C002   N002    1.394   .     S
C003   C005    1.438   .     D
C003   N001    1.390   .     S
C004   C005    1.403   1_565 S
C004   C016    1.436   .     D
C004   C018    1.438   .     S
C005   C004    1.403   1_545 S
C005   C006    1.436   .     S
C006   C007    1.438   .     S
C006   C009    1.403   1_655 D
C007   C020    1.408   .     S
C007   N001    1.391   .     D
C008   C009    1.437   .     S
C008   C014    1.404   1_545 D
C009   C006    1.403   1_455 D
C009   C010    1.436   .     S
C010   C011    1.410   .     S
C010   N002    1.392   .     D
C011   C012    1.408   .     S
C011   C020    1.449   1_455 D
C012   C015    1.436   .     S
C012   N003    1.396   .     D
C013   C014    1.436   .     S
C013   C019    1.408   .     D
C013   N003    1.396   .     S
C014   C008    1.404   1_565 D
C014   C015    1.439   .     S
C015   C018    1.404   1_455 D
C016   C019    1.410   .     S
C016   N004    1.392   .     S
C017   C018    1.438   .     S
C017   C020    1.409   .     S
C017   N004    1.394   .     D
C018   C015    1.404   1_655 D
C019   C001    1.449   1_565 S
C020   C011    1.449   1_655 D
N001   Fe001   2.012   .     S
N002   Fe001   1.989   .     S
N003   Fe001   1.977   .     S
N004   Fe001   1.992   .     S
N005   Fe001   1.865   .     S
N005   H001    1.027   .     S
N005   H002    1.027   .     S
