data_e+0.6-opt
_audit_creation_date              2024-12-22
_audit_creation_method            'Materials Studio'
_symmetry_space_group_name_H-M    'P1'
_symmetry_Int_Tables_number       1
_symmetry_cell_setting            triclinic
loop_
_symmetry_equiv_pos_as_xyz
  x,y,z
_cell_length_a                    8.3949
_cell_length_b                    8.3949
_cell_length_c                    20.0381
_cell_angle_alpha                 90.0000
_cell_angle_beta                  90.0000
_cell_angle_gamma                 90.0000
loop_
_atom_site_label
_atom_site_type_symbol
_atom_site_fract_x
_atom_site_fract_y
_atom_site_fract_z
_atom_site_U_iso_or_equiv
_atom_site_adp_type
_atom_site_occupancy
C001   C     0.50462   0.08049   0.14019   1.00000  Uiso   1.00
C002   C     0.35810   0.16222   0.14065   1.00000  Uiso   1.00
C003   C     0.65110   0.16241   0.13917   1.00000  Uiso   1.00
C004   C     0.80016   0.91056   0.14007   1.00000  Uiso   1.00
C005   C     0.79999   0.07759   0.13914   1.00000  Uiso   1.00
C006   C     0.92103   0.19866   0.13920   1.00000  Uiso   1.00
C007   C     0.83614   0.34754   0.13941   1.00000  Uiso   1.00
C008   C     0.20932   0.07748   0.13995   1.00000  Uiso   1.00
C009   C     0.08806   0.19844   0.13997   1.00000  Uiso   1.00
C010   C     0.17255   0.34731   0.14076   1.00000  Uiso   1.00
C011   C     0.09068   0.49392   0.14052   1.00000  Uiso   1.00
C012   C     0.17280   0.64021   0.13942   1.00000  Uiso   1.00
C013   C     0.35840   0.82582   0.13922   1.00000  Uiso   1.00
C014   C     0.20954   0.91027   0.13924   1.00000  Uiso   1.00
C015   C     0.08830   0.78907   0.13939   1.00000  Uiso   1.00
C016   C     0.65131   0.82610   0.14091   1.00000  Uiso   1.00
C017   C     0.83629   0.64051   0.14126   1.00000  Uiso   1.00
C018   C     0.92114   0.78928   0.14027   1.00000  Uiso   1.00
C019   C     0.50470   0.90793   0.14027   1.00000  Uiso   1.00
C020   C     0.91806   0.49402   0.14067   1.00000  Uiso   1.00
N001   N     0.67187   0.32668   0.13905   1.00000  Uiso   1.00
N002   N     0.33714   0.32696   0.14151   1.00000  Uiso   1.00
N003   N     0.33773   0.66087   0.13882   1.00000  Uiso   1.00
N004   N     0.67157   0.66151   0.14216   1.00000  Uiso   1.00
N005   N     0.49973   0.49529   0.24255   1.00000  Uiso   1.00
Fe001  Fe    0.50340   0.49497   0.14875   1.00000  Uiso   1.00
H001   H     0.51399   0.61020   0.25926   1.00000  Uiso   1.00
H002   H     0.38920   0.45861   0.25842   1.00000  Uiso   1.00
loop_
_geom_bond_atom_site_label_1
_geom_bond_atom_site_label_2
_geom_bond_distance
_geom_bond_site_symmetry_2
_ccdc_geom_bond_type
C001   C002    1.409   .     D
C001   C003    1.409   .     S
C001   C019    1.449   1_545 S
C002   C008    1.437   .     S
C002   N002    1.394   .     S
C003   C005    1.438   .     D
C003   N001    1.390   .     S
C004   C005    1.402   1_565 S
C004   C016    1.437   .     D
C004   C018    1.438   .     S
C005   C004    1.402   1_545 S
C005   C006    1.437   .     S
C006   C007    1.439   .     S
C006   C009    1.402   1_655 D
C007   C020    1.409   .     S
C007   N001    1.390   .     D
C008   C009    1.438   .     S
C008   C014    1.404   1_545 D
C009   C006    1.402   1_455 D
C009   C010    1.437   .     S
C010   C011    1.410   .     S
C010   N002    1.392   .     D
C011   C012    1.408   .     S
C011   C020    1.449   1_455 D
C012   C015    1.437   .     S
C012   N003    1.395   .     D
C013   C014    1.437   .     S
C013   C019    1.409   .     D
C013   N003    1.396   .     S
C014   C008    1.404   1_565 D
C014   C015    1.439   .     S
C015   C018    1.403   1_455 D
C016   C019    1.410   .     S
C016   N004    1.392   .     S
C017   C018    1.438   .     S
C017   C020    1.408   .     S
C017   N004    1.394   .     D
C018   C015    1.403   1_655 D
C019   C001    1.449   1_565 S
C020   C011    1.449   1_655 D
N001   Fe001   2.008   .     S
N002   Fe001   1.990   .     S
N003   Fe001   1.978   .     S
N004   Fe001   1.991   .     S
N005   Fe001   1.880   .     S
N005   H001    1.028   .     S
N005   H002    1.028   .     S
