data_e-0.2-opt
_audit_creation_date              2024-12-22
_audit_creation_method            'Materials Studio'
_symmetry_space_group_name_H-M    'P1'
_symmetry_Int_Tables_number       1
_symmetry_cell_setting            triclinic
loop_
_symmetry_equiv_pos_as_xyz
  x,y,z
_cell_length_a                    8.3949
_cell_length_b                    8.3949
_cell_length_c                    20.0381
_cell_angle_alpha                 90.0000
_cell_angle_beta                  90.0000
_cell_angle_gamma                 90.0000
loop_
_atom_site_label
_atom_site_type_symbol
_atom_site_fract_x
_atom_site_fract_y
_atom_site_fract_z
_atom_site_U_iso_or_equiv
_atom_site_adp_type
_atom_site_occupancy
C001   C     0.50475   0.08046   0.14014   1.00000  Uiso   1.00
C002   C     0.35816   0.16226   0.14071   1.00000  Uiso   1.00
C003   C     0.65121   0.16223   0.13897   1.00000  Uiso   1.00
C004   C     0.80019   0.91032   0.14018   1.00000  Uiso   1.00
C005   C     0.80010   0.07765   0.13917   1.00000  Uiso   1.00
C006   C     0.92100   0.19859   0.13923   1.00000  Uiso   1.00
C007   C     0.83635   0.34749   0.13922   1.00000  Uiso   1.00
C008   C     0.20937   0.07771   0.14005   1.00000  Uiso   1.00
C009   C     0.08834   0.19848   0.14008   1.00000  Uiso   1.00
C010   C     0.17263   0.34732   0.14086   1.00000  Uiso   1.00
C011   C     0.09072   0.49399   0.14049   1.00000  Uiso   1.00
C012   C     0.17266   0.64033   0.13923   1.00000  Uiso   1.00
C013   C     0.35831   0.82600   0.13902   1.00000  Uiso   1.00
C014   C     0.20947   0.91029   0.13933   1.00000  Uiso   1.00
C015   C     0.08832   0.78918   0.13949   1.00000  Uiso   1.00
C016   C     0.65133   0.82604   0.14101   1.00000  Uiso   1.00
C017   C     0.83626   0.64051   0.14135   1.00000  Uiso   1.00
C018   C     0.92092   0.78926   0.14037   1.00000  Uiso   1.00
C019   C     0.50470   0.90792   0.14024   1.00000  Uiso   1.00
C020   C     0.91811   0.49393   0.14063   1.00000  Uiso   1.00
N001   N     0.67195   0.32663   0.13835   1.00000  Uiso   1.00
N002   N     0.33726   0.32700   0.14150   1.00000  Uiso   1.00
N003   N     0.33768   0.66099   0.13788   1.00000  Uiso   1.00
N004   N     0.67156   0.66143   0.14219   1.00000  Uiso   1.00
N005   N     0.49474   0.49926   0.24050   1.00000  Uiso   1.00
Fe001  Fe    0.50299   0.49522   0.14942   1.00000  Uiso   1.00
H001   H     0.51714   0.60913   0.26073   1.00000  Uiso   1.00
H002   H     0.39064   0.45531   0.25986   1.00000  Uiso   1.00
loop_
_geom_bond_atom_site_label_1
_geom_bond_atom_site_label_2
_geom_bond_distance
_geom_bond_site_symmetry_2
_ccdc_geom_bond_type
C001   C002    1.409   .     D
C001   C003    1.408   .     S
C001   C019    1.448   1_545 S
C002   C008    1.437   .     S
C002   N002    1.394   .     S
C003   C005    1.437   .     D
C003   N001    1.391   .     S
C004   C005    1.405   1_565 S
C004   C016    1.436   .     D
C004   C018    1.435   .     S
C005   C004    1.405   1_545 S
C005   C006    1.436   .     S
C006   C007    1.438   .     S
C006   C009    1.405   1_655 D
C007   C020    1.408   .     S
C007   N001    1.391   .     D
C008   C009    1.435   .     S
C008   C014    1.406   1_545 D
C009   C006    1.405   1_455 D
C009   C010    1.436   .     S
C010   C011    1.410   .     S
C010   N002    1.393   .     D
C011   C012    1.408   .     S
C011   C020    1.449   1_455 D
C012   C015    1.436   .     S
C012   N003    1.396   .     D
C013   C014    1.436   .     S
C013   C019    1.408   .     D
C013   N003    1.396   .     S
C014   C008    1.406   1_565 D
C014   C015    1.438   .     S
C015   C018    1.405   1_455 D
C016   C019    1.410   .     S
C016   N004    1.392   .     S
C017   C018    1.437   .     S
C017   C020    1.409   .     S
C017   N004    1.394   .     D
C018   C015    1.405   1_655 D
C019   C001    1.448   1_565 S
C020   C011    1.449   1_655 D
N001   Fe001   2.016   .     S
N002   Fe001   1.989   .     S
N003   Fe001   1.979   .     S
N004   Fe001   1.993   .     S
N005   Fe001   1.827   .     S
N005   H001    1.025   .     S
N005   H002    1.025   .     S
