data_e+0.2-opt
_audit_creation_date              2024-12-22
_audit_creation_method            'Materials Studio'
_symmetry_space_group_name_H-M    'P1'
_symmetry_Int_Tables_number       1
_symmetry_cell_setting            triclinic
loop_
_symmetry_equiv_pos_as_xyz
  x,y,z
_cell_length_a                    8.3949
_cell_length_b                    8.3949
_cell_length_c                    20.0381
_cell_angle_alpha                 90.0000
_cell_angle_beta                  90.0000
_cell_angle_gamma                 90.0000
loop_
_atom_site_label
_atom_site_type_symbol
_atom_site_fract_x
_atom_site_fract_y
_atom_site_fract_z
_atom_site_U_iso_or_equiv
_atom_site_adp_type
_atom_site_occupancy
C001   C     0.50470   0.08051   0.14014   1.00000  Uiso   1.00
C002   C     0.35820   0.16225   0.14069   1.00000  Uiso   1.00
C003   C     0.65122   0.16231   0.13900   1.00000  Uiso   1.00
C004   C     0.80013   0.91044   0.14018   1.00000  Uiso   1.00
C005   C     0.80010   0.07759   0.13917   1.00000  Uiso   1.00
C006   C     0.92106   0.19859   0.13923   1.00000  Uiso   1.00
C007   C     0.83626   0.34747   0.13924   1.00000  Uiso   1.00
C008   C     0.20941   0.07762   0.14006   1.00000  Uiso   1.00
C009   C     0.08820   0.19852   0.14008   1.00000  Uiso   1.00
C010   C     0.17259   0.34737   0.14083   1.00000  Uiso   1.00
C011   C     0.09076   0.49396   0.14049   1.00000  Uiso   1.00
C012   C     0.17269   0.64031   0.13926   1.00000  Uiso   1.00
C013   C     0.35834   0.82596   0.13905   1.00000  Uiso   1.00
C014   C     0.20948   0.91031   0.13933   1.00000  Uiso   1.00
C015   C     0.08829   0.78916   0.13948   1.00000  Uiso   1.00
C016   C     0.65129   0.82607   0.14098   1.00000  Uiso   1.00
C017   C     0.83628   0.64044   0.14132   1.00000  Uiso   1.00
C018   C     0.92103   0.78922   0.14038   1.00000  Uiso   1.00
C019   C     0.50471   0.90789   0.14024   1.00000  Uiso   1.00
C020   C     0.91806   0.49398   0.14064   1.00000  Uiso   1.00
N001   N     0.67196   0.32661   0.13857   1.00000  Uiso   1.00
N002   N     0.33724   0.32703   0.14151   1.00000  Uiso   1.00
N003   N     0.33765   0.66099   0.13816   1.00000  Uiso   1.00
N004   N     0.67151   0.66145   0.14219   1.00000  Uiso   1.00
N005   N     0.49674   0.49761   0.24128   1.00000  Uiso   1.00
Fe001  Fe    0.50303   0.49524   0.14905   1.00000  Uiso   1.00
H001   H     0.51594   0.60953   0.26026   1.00000  Uiso   1.00
H002   H     0.39003   0.45647   0.25939   1.00000  Uiso   1.00
loop_
_geom_bond_atom_site_label_1
_geom_bond_atom_site_label_2
_geom_bond_distance
_geom_bond_site_symmetry_2
_ccdc_geom_bond_type
C001   C002    1.408   .     D
C001   C003    1.409   .     S
C001   C019    1.449   1_545 S
C002   C008    1.437   .     S
C002   N002    1.395   .     S
C003   C005    1.438   .     D
C003   N001    1.390   .     S
C004   C005    1.403   1_565 S
C004   C016    1.436   .     D
C004   C018    1.437   .     S
C005   C004    1.403   1_545 S
C005   C006    1.436   .     S
C006   C007    1.438   .     S
C006   C009    1.403   1_655 D
C007   C020    1.409   .     S
C007   N001    1.390   .     D
C008   C009    1.437   .     S
C008   C014    1.405   1_545 D
C009   C006    1.403   1_455 D
C009   C010    1.436   .     S
C010   C011    1.409   .     S
C010   N002    1.393   .     D
C011   C012    1.408   .     S
C011   C020    1.450   1_455 D
C012   C015    1.436   .     S
C012   N003    1.396   .     D
C013   C014    1.436   .     S
C013   C019    1.408   .     D
C013   N003    1.396   .     S
C014   C008    1.405   1_565 D
C014   C015    1.439   .     S
C015   C018    1.404   1_455 D
C016   C019    1.409   .     S
C016   N004    1.393   .     S
C017   C018    1.438   .     S
C017   C020    1.408   .     S
C017   N004    1.395   .     D
C018   C015    1.404   1_655 D
C019   C001    1.449   1_565 S
C020   C011    1.450   1_655 D
N001   Fe001   2.015   .     S
N002   Fe001   1.988   .     S
N003   Fe001   1.978   .     S
N004   Fe001   1.992   .     S
N005   Fe001   1.849   .     S
N005   H001    1.026   .     S
N005   H002    1.026   .     S
