data_e-1.0-opt
_audit_creation_date              2024-12-22
_audit_creation_method            'Materials Studio'
_symmetry_space_group_name_H-M    'P1'
_symmetry_Int_Tables_number       1
_symmetry_cell_setting            triclinic
loop_
_symmetry_equiv_pos_as_xyz
  x,y,z
_cell_length_a                    8.3949
_cell_length_b                    8.3949
_cell_length_c                    20.0381
_cell_angle_alpha                 90.0000
_cell_angle_beta                  90.0000
_cell_angle_gamma                 90.0000
loop_
_atom_site_label
_atom_site_type_symbol
_atom_site_fract_x
_atom_site_fract_y
_atom_site_fract_z
_atom_site_U_iso_or_equiv
_atom_site_adp_type
_atom_site_occupancy
C001   C     0.50284   0.08154   0.13990   1.00000  Uiso   1.00
C002   C     0.35616   0.16298   0.14060   1.00000  Uiso   1.00
C003   C     0.64910   0.16354   0.13889   1.00000  Uiso   1.00
C004   C     0.79881   0.91187   0.13938   1.00000  Uiso   1.00
C005   C     0.79804   0.07925   0.13845   1.00000  Uiso   1.00
C006   C     0.91893   0.20017   0.13858   1.00000  Uiso   1.00
C007   C     0.83455   0.34913   0.13925   1.00000  Uiso   1.00
C008   C     0.20743   0.07845   0.13901   1.00000  Uiso   1.00
C009   C     0.08630   0.19940   0.13937   1.00000  Uiso   1.00
C010   C     0.17071   0.34817   0.14090   1.00000  Uiso   1.00
C011   C     0.08927   0.49491   0.14000   1.00000  Uiso   1.00
C012   C     0.17129   0.64109   0.13777   1.00000  Uiso   1.00
C013   C     0.35707   0.82692   0.13742   1.00000  Uiso   1.00
C014   C     0.20815   0.91100   0.13757   1.00000  Uiso   1.00
C015   C     0.08715   0.79001   0.13778   1.00000  Uiso   1.00
C016   C     0.65000   0.82748   0.14084   1.00000  Uiso   1.00
C017   C     0.83508   0.64202   0.14125   1.00000  Uiso   1.00
C018   C     0.91972   0.79072   0.13935   1.00000  Uiso   1.00
C019   C     0.50330   0.90892   0.13954   1.00000  Uiso   1.00
C020   C     0.91656   0.49537   0.14054   1.00000  Uiso   1.00
N001   N     0.66980   0.32829   0.13841   1.00000  Uiso   1.00
N002   N     0.33523   0.32761   0.14221   1.00000  Uiso   1.00
N003   N     0.33625   0.66196   0.13596   1.00000  Uiso   1.00
N004   N     0.67045   0.66301   0.14267   1.00000  Uiso   1.00
N005   N     0.49196   0.50298   0.23991   1.00000  Uiso   1.00
Fe001  Fe    0.50153   0.49616   0.15166   1.00000  Uiso   1.00
H001   H     0.53972   0.59511   0.26663   1.00000  Uiso   1.00
H002   H     0.41149   0.43688   0.26637   1.00000  Uiso   1.00
loop_
_geom_bond_atom_site_label_1
_geom_bond_atom_site_label_2
_geom_bond_distance
_geom_bond_site_symmetry_2
_ccdc_geom_bond_type
C001   C002    1.409   .     D
C001   C003    1.408   .     S
C001   C019    1.449   1_545 S
C002   C008    1.437   .     S
C002   N002    1.394   .     S
C003   C005    1.437   .     D
C003   N001    1.394   .     S
C004   C005    1.405   1_565 S
C004   C016    1.436   .     D
C004   C018    1.437   .     S
C005   C004    1.405   1_545 S
C005   C006    1.435   .     S
C006   C007    1.437   .     S
C006   C009    1.405   1_655 D
C007   C020    1.408   .     S
C007   N001    1.394   .     D
C008   C009    1.437   .     S
C008   C014    1.406   1_545 D
C009   C006    1.405   1_455 D
C009   C010    1.436   .     S
C010   C011    1.409   .     S
C010   N002    1.392   .     D
C011   C012    1.408   .     S
C011   C020    1.450   1_455 D
C012   C015    1.436   .     S
C012   N003    1.396   .     D
C013   C014    1.436   .     S
C013   C019    1.408   .     D
C013   N003    1.396   .     S
C014   C008    1.406   1_565 D
C014   C015    1.437   .     S
C015   C018    1.406   1_455 D
C016   C019    1.409   .     S
C016   N004    1.392   .     S
C017   C018    1.437   .     S
C017   C020    1.408   .     S
C017   N004    1.393   .     D
C018   C015    1.406   1_655 D
C019   C001    1.449   1_565 S
C020   C011    1.450   1_655 D
N001   Fe001   2.013   .     S
N002   Fe001   1.997   .     S
N003   Fe001   1.990   .     S
N004   Fe001   2.001   .     S
N005   Fe001   1.771   .     S
N005   H001    1.023   .     S
N005   H002    1.022   .     S
