data_e+0.0-opt
_audit_creation_date              2024-12-22
_audit_creation_method            'Materials Studio'
_symmetry_space_group_name_H-M    'P1'
_symmetry_Int_Tables_number       1
_symmetry_cell_setting            triclinic
loop_
_symmetry_equiv_pos_as_xyz
  x,y,z
_cell_length_a                    8.3949
_cell_length_b                    8.3949
_cell_length_c                    20.0381
_cell_angle_alpha                 90.0000
_cell_angle_beta                  90.0000
_cell_angle_gamma                 90.0000
loop_
_atom_site_label
_atom_site_type_symbol
_atom_site_fract_x
_atom_site_fract_y
_atom_site_fract_z
_atom_site_U_iso_or_equiv
_atom_site_adp_type
_atom_site_occupancy
C001   C     0.50470   0.08051   0.14015   1.00000  Uiso   1.00
C002   C     0.35819   0.16223   0.14071   1.00000  Uiso   1.00
C003   C     0.65122   0.16229   0.13899   1.00000  Uiso   1.00
C004   C     0.80014   0.91041   0.14018   1.00000  Uiso   1.00
C005   C     0.80008   0.07763   0.13917   1.00000  Uiso   1.00
C006   C     0.92103   0.19860   0.13923   1.00000  Uiso   1.00
C007   C     0.83628   0.34747   0.13923   1.00000  Uiso   1.00
C008   C     0.20941   0.07764   0.14005   1.00000  Uiso   1.00
C009   C     0.08824   0.19852   0.14008   1.00000  Uiso   1.00
C010   C     0.17257   0.34736   0.14084   1.00000  Uiso   1.00
C011   C     0.09077   0.49396   0.14049   1.00000  Uiso   1.00
C012   C     0.17268   0.64032   0.13925   1.00000  Uiso   1.00
C013   C     0.35833   0.82598   0.13903   1.00000  Uiso   1.00
C014   C     0.20949   0.91028   0.13933   1.00000  Uiso   1.00
C015   C     0.08833   0.78915   0.13948   1.00000  Uiso   1.00
C016   C     0.65130   0.82609   0.14099   1.00000  Uiso   1.00
C017   C     0.83630   0.64046   0.14134   1.00000  Uiso   1.00
C018   C     0.92100   0.78923   0.14037   1.00000  Uiso   1.00
C019   C     0.50471   0.90788   0.14024   1.00000  Uiso   1.00
C020   C     0.91806   0.49399   0.14064   1.00000  Uiso   1.00
N001   N     0.67195   0.32662   0.13847   1.00000  Uiso   1.00
N002   N     0.33725   0.32703   0.14151   1.00000  Uiso   1.00
N003   N     0.33765   0.66100   0.13802   1.00000  Uiso   1.00
N004   N     0.67151   0.66145   0.14219   1.00000  Uiso   1.00
N005   N     0.49575   0.49844   0.24086   1.00000  Uiso   1.00
Fe001  Fe    0.50300   0.49524   0.14923   1.00000  Uiso   1.00
H001   H     0.51659   0.60931   0.26049   1.00000  Uiso   1.00
H002   H     0.39037   0.45586   0.25962   1.00000  Uiso   1.00
loop_
_geom_bond_atom_site_label_1
_geom_bond_atom_site_label_2
_geom_bond_distance
_geom_bond_site_symmetry_2
_ccdc_geom_bond_type
C001   C002    1.408   .     D
C001   C003    1.409   .     S
C001   C019    1.449   1_545 S
C002   C008    1.437   .     S
C002   N002    1.395   .     S
C003   C005    1.438   .     D
C003   N001    1.391   .     S
C004   C005    1.404   1_565 S
C004   C016    1.436   .     D
C004   C018    1.437   .     S
C005   C004    1.404   1_545 S
C005   C006    1.436   .     S
C006   C007    1.438   .     S
C006   C009    1.404   1_655 D
C007   C020    1.409   .     S
C007   N001    1.391   .     D
C008   C009    1.437   .     S
C008   C014    1.405   1_545 D
C009   C006    1.404   1_455 D
C009   C010    1.436   .     S
C010   C011    1.409   .     S
C010   N002    1.393   .     D
C011   C012    1.408   .     S
C011   C020    1.450   1_455 D
C012   C015    1.436   .     S
C012   N003    1.396   .     D
C013   C014    1.436   .     S
C013   C019    1.408   .     D
C013   N003    1.396   .     S
C014   C008    1.405   1_565 D
C014   C015    1.438   .     S
C015   C018    1.405   1_455 D
C016   C019    1.409   .     S
C016   N004    1.393   .     S
C017   C018    1.437   .     S
C017   C020    1.408   .     S
C017   N004    1.395   .     D
C018   C015    1.405   1_655 D
C019   C001    1.449   1_565 S
C020   C011    1.450   1_655 D
N001   Fe001   2.015   .     S
N002   Fe001   1.989   .     S
N003   Fe001   1.978   .     S
N004   Fe001   1.992   .     S
N005   Fe001   1.837   .     S
N005   H001    1.026   .     S
N005   H002    1.025   .     S
