data_e-0.4-opt
_audit_creation_date              2024-12-22
_audit_creation_method            'Materials Studio'
_symmetry_space_group_name_H-M    'P1'
_symmetry_Int_Tables_number       1
_symmetry_cell_setting            triclinic
loop_
_symmetry_equiv_pos_as_xyz
  x,y,z
_cell_length_a                    8.3949
_cell_length_b                    8.3949
_cell_length_c                    20.0381
_cell_angle_alpha                 90.0000
_cell_angle_beta                  90.0000
_cell_angle_gamma                 90.0000
loop_
_atom_site_label
_atom_site_type_symbol
_atom_site_fract_x
_atom_site_fract_y
_atom_site_fract_z
_atom_site_U_iso_or_equiv
_atom_site_adp_type
_atom_site_occupancy
C001   C     0.50448   0.08057   0.14019   1.00000  Uiso   1.00
C002   C     0.35785   0.16216   0.14074   1.00000  Uiso   1.00
C003   C     0.65092   0.16240   0.13907   1.00000  Uiso   1.00
C004   C     0.80015   0.91056   0.14002   1.00000  Uiso   1.00
C005   C     0.79976   0.07794   0.13903   1.00000  Uiso   1.00
C006   C     0.92063   0.19885   0.13910   1.00000  Uiso   1.00
C007   C     0.83610   0.34771   0.13934   1.00000  Uiso   1.00
C008   C     0.20915   0.07759   0.13989   1.00000  Uiso   1.00
C009   C     0.08802   0.19845   0.13992   1.00000  Uiso   1.00
C010   C     0.17227   0.34722   0.14082   1.00000  Uiso   1.00
C011   C     0.09062   0.49393   0.14040   1.00000  Uiso   1.00
C012   C     0.17259   0.64023   0.13891   1.00000  Uiso   1.00
C013   C     0.35834   0.82600   0.13868   1.00000  Uiso   1.00
C014   C     0.20954   0.91009   0.13904   1.00000  Uiso   1.00
C015   C     0.08845   0.78903   0.13920   1.00000  Uiso   1.00
C016   C     0.65136   0.82631   0.14096   1.00000  Uiso   1.00
C017   C     0.83629   0.64073   0.14138   1.00000  Uiso   1.00
C018   C     0.92097   0.78940   0.14021   1.00000  Uiso   1.00
C019   C     0.50469   0.90796   0.14012   1.00000  Uiso   1.00
C020   C     0.91792   0.49413   0.14071   1.00000  Uiso   1.00
N001   N     0.67163   0.32686   0.13852   1.00000  Uiso   1.00
N002   N     0.33691   0.32694   0.14156   1.00000  Uiso   1.00
N003   N     0.33761   0.66099   0.13728   1.00000  Uiso   1.00
N004   N     0.67153   0.66172   0.14223   1.00000  Uiso   1.00
N005   N     0.49294   0.50109   0.24000   1.00000  Uiso   1.00
Fe001  Fe    0.50267   0.49541   0.14981   1.00000  Uiso   1.00
H001   H     0.52045   0.60781   0.26188   1.00000  Uiso   1.00
H002   H     0.39302   0.45282   0.26117   1.00000  Uiso   1.00
loop_
_geom_bond_atom_site_label_1
_geom_bond_atom_site_label_2
_geom_bond_distance
_geom_bond_site_symmetry_2
_ccdc_geom_bond_type
C001   C002    1.409   .     D
C001   C003    1.408   .     S
C001   C019    1.449   1_545 S
C002   C008    1.436   .     S
C002   N002    1.395   .     S
C003   C005    1.437   .     D
C003   N001    1.392   .     S
C004   C005    1.405   1_565 S
C004   C016    1.436   .     D
C004   C018    1.436   .     S
C005   C004    1.405   1_545 S
C005   C006    1.435   .     S
C006   C007    1.437   .     S
C006   C009    1.405   1_655 D
C007   C020    1.408   .     S
C007   N001    1.392   .     D
C008   C009    1.436   .     S
C008   C014    1.406   1_545 D
C009   C006    1.405   1_455 D
C009   C010    1.435   .     S
C010   C011    1.410   .     S
C010   N002    1.393   .     D
C011   C012    1.408   .     S
C011   C020    1.450   1_455 D
C012   C015    1.435   .     S
C012   N003    1.397   .     D
C013   C014    1.435   .     S
C013   C019    1.408   .     D
C013   N003    1.396   .     S
C014   C008    1.406   1_565 D
C014   C015    1.437   .     S
C015   C018    1.406   1_455 D
C016   C019    1.409   .     S
C016   N004    1.392   .     S
C017   C018    1.437   .     S
C017   C020    1.409   .     S
C017   N004    1.394   .     D
C018   C015    1.406   1_655 D
C019   C001    1.449   1_565 S
C020   C011    1.450   1_655 D
N001   Fe001   2.016   .     S
N002   Fe001   1.991   .     S
N003   Fe001   1.979   .     S
N004   Fe001   1.995   .     S
N005   Fe001   1.810   .     S
N005   H001    1.024   .     S
N005   H002    1.024   .     S
