data_e+0.8-opt
_audit_creation_date              2024-12-22
_audit_creation_method            'Materials Studio'
_symmetry_space_group_name_H-M    'P1'
_symmetry_Int_Tables_number       1
_symmetry_cell_setting            triclinic
loop_
_symmetry_equiv_pos_as_xyz
  x,y,z
_cell_length_a                    8.3949
_cell_length_b                    8.3949
_cell_length_c                    20.0381
_cell_angle_alpha                 90.0000
_cell_angle_beta                  90.0000
_cell_angle_gamma                 90.0000
loop_
_atom_site_label
_atom_site_type_symbol
_atom_site_fract_x
_atom_site_fract_y
_atom_site_fract_z
_atom_site_U_iso_or_equiv
_atom_site_adp_type
_atom_site_occupancy
C001   C     0.50462   0.08054   0.14019   1.00000  Uiso   1.00
C002   C     0.35816   0.16222   0.14067   1.00000  Uiso   1.00
C003   C     0.65105   0.16237   0.13914   1.00000  Uiso   1.00
C004   C     0.80019   0.91063   0.14010   1.00000  Uiso   1.00
C005   C     0.80008   0.07751   0.13915   1.00000  Uiso   1.00
C006   C     0.92112   0.19857   0.13921   1.00000  Uiso   1.00
C007   C     0.83619   0.34761   0.13938   1.00000  Uiso   1.00
C008   C     0.20932   0.07741   0.13998   1.00000  Uiso   1.00
C009   C     0.08799   0.19843   0.14000   1.00000  Uiso   1.00
C010   C     0.17252   0.34740   0.14077   1.00000  Uiso   1.00
C011   C     0.09074   0.49395   0.14050   1.00000  Uiso   1.00
C012   C     0.17273   0.64016   0.13934   1.00000  Uiso   1.00
C013   C     0.35844   0.82590   0.13914   1.00000  Uiso   1.00
C014   C     0.20947   0.91034   0.13924   1.00000  Uiso   1.00
C015   C     0.08824   0.78914   0.13939   1.00000  Uiso   1.00
C016   C     0.65123   0.82612   0.14093   1.00000  Uiso   1.00
C017   C     0.83630   0.64045   0.14129   1.00000  Uiso   1.00
C018   C     0.92121   0.78928   0.14030   1.00000  Uiso   1.00
C019   C     0.50469   0.90789   0.14026   1.00000  Uiso   1.00
C020   C     0.91800   0.49402   0.14068   1.00000  Uiso   1.00
N001   N     0.67197   0.32658   0.13900   1.00000  Uiso   1.00
N002   N     0.33704   0.32696   0.14158   1.00000  Uiso   1.00
N003   N     0.33764   0.66096   0.13864   1.00000  Uiso   1.00
N004   N     0.67157   0.66161   0.14224   1.00000  Uiso   1.00
N005   N     0.49867   0.49613   0.24191   1.00000  Uiso   1.00
Fe001  Fe    0.50313   0.49519   0.14877   1.00000  Uiso   1.00
H001   H     0.51493   0.60986   0.25963   1.00000  Uiso   1.00
H002   H     0.38965   0.45769   0.25878   1.00000  Uiso   1.00
loop_
_geom_bond_atom_site_label_1
_geom_bond_atom_site_label_2
_geom_bond_distance
_geom_bond_site_symmetry_2
_ccdc_geom_bond_type
C001   C002    1.408   .     D
C001   C003    1.408   .     S
C001   C019    1.449   1_545 S
C002   C008    1.438   .     S
C002   N002    1.394   .     S
C003   C005    1.440   .     D
C003   N001    1.390   .     S
C004   C005    1.401   1_565 S
C004   C016    1.438   .     D
C004   C018    1.439   .     S
C005   C004    1.401   1_545 S
C005   C006    1.437   .     S
C006   C007    1.440   .     S
C006   C009    1.401   1_655 D
C007   C020    1.408   .     S
C007   N001    1.390   .     D
C008   C009    1.439   .     S
C008   C014    1.403   1_545 D
C009   C006    1.401   1_455 D
C009   C010    1.438   .     S
C010   C011    1.409   .     S
C010   N002    1.392   .     D
C011   C012    1.407   .     S
C011   C020    1.450   1_455 D
C012   C015    1.438   .     S
C012   N003    1.395   .     D
C013   C014    1.438   .     S
C013   C019    1.408   .     D
C013   N003    1.396   .     S
C014   C008    1.403   1_565 D
C014   C015    1.439   .     S
C015   C018    1.402   1_455 D
C016   C019    1.409   .     S
C016   N004    1.392   .     S
C017   C018    1.439   .     S
C017   C020    1.408   .     S
C017   N004    1.394   .     D
C018   C015    1.402   1_655 D
C019   C001    1.449   1_565 S
C020   C011    1.450   1_655 D
N001   Fe001   2.013   .     S
N002   Fe001   1.990   .     S
N003   Fe001   1.977   .     S
N004   Fe001   1.992   .     S
N005   Fe001   1.867   .     S
N005   H001    1.028   .     S
N005   H002    1.028   .     S
