data_e+1.0-opt
_audit_creation_date              2024-12-22
_audit_creation_method            'Materials Studio'
_symmetry_space_group_name_H-M    'P1'
_symmetry_Int_Tables_number       1
_symmetry_cell_setting            triclinic
loop_
_symmetry_equiv_pos_as_xyz
  x,y,z
_cell_length_a                    8.3949
_cell_length_b                    8.3949
_cell_length_c                    20.0381
_cell_angle_alpha                 90.0000
_cell_angle_beta                  90.0000
_cell_angle_gamma                 90.0000
loop_
_atom_site_label
_atom_site_type_symbol
_atom_site_fract_x
_atom_site_fract_y
_atom_site_fract_z
_atom_site_U_iso_or_equiv
_atom_site_adp_type
_atom_site_occupancy
C001   C     0.50467   0.08054   0.14018   1.00000  Uiso   1.00
C002   C     0.35814   0.16222   0.14067   1.00000  Uiso   1.00
C003   C     0.65110   0.16235   0.13911   1.00000  Uiso   1.00
C004   C     0.80019   0.91067   0.14011   1.00000  Uiso   1.00
C005   C     0.80008   0.07742   0.13915   1.00000  Uiso   1.00
C006   C     0.92121   0.19858   0.13921   1.00000  Uiso   1.00
C007   C     0.83620   0.34757   0.13935   1.00000  Uiso   1.00
C008   C     0.20933   0.07737   0.14000   1.00000  Uiso   1.00
C009   C     0.08796   0.19843   0.14001   1.00000  Uiso   1.00
C010   C     0.17254   0.34737   0.14078   1.00000  Uiso   1.00
C011   C     0.09071   0.49400   0.14050   1.00000  Uiso   1.00
C012   C     0.17276   0.64019   0.13932   1.00000  Uiso   1.00
C013   C     0.35842   0.82588   0.13911   1.00000  Uiso   1.00
C014   C     0.20946   0.91046   0.13925   1.00000  Uiso   1.00
C015   C     0.08812   0.78917   0.13940   1.00000  Uiso   1.00
C016   C     0.65126   0.82611   0.14093   1.00000  Uiso   1.00
C017   C     0.83629   0.64048   0.14129   1.00000  Uiso   1.00
C018   C     0.92126   0.78928   0.14031   1.00000  Uiso   1.00
C019   C     0.50466   0.90792   0.14025   1.00000  Uiso   1.00
C020   C     0.91801   0.49398   0.14067   1.00000  Uiso   1.00
N001   N     0.67209   0.32647   0.13897   1.00000  Uiso   1.00
N002   N     0.33700   0.32695   0.14161   1.00000  Uiso   1.00
N003   N     0.33753   0.66108   0.13859   1.00000  Uiso   1.00
N004   N     0.67158   0.66166   0.14228   1.00000  Uiso   1.00
N005   N     0.49824   0.49646   0.24170   1.00000  Uiso   1.00
Fe001  Fe    0.50303   0.49529   0.14872   1.00000  Uiso   1.00
H001   H     0.51526   0.60970   0.25978   1.00000  Uiso   1.00
H002   H     0.38982   0.45732   0.25893   1.00000  Uiso   1.00
loop_
_geom_bond_atom_site_label_1
_geom_bond_atom_site_label_2
_geom_bond_distance
_geom_bond_site_symmetry_2
_ccdc_geom_bond_type
C001   C002    1.408   .     D
C001   C003    1.408   .     S
C001   C019    1.449   1_545 S
C002   C008    1.438   .     S
C002   N002    1.394   .     S
C003   C005    1.440   .     D
C003   N001    1.389   .     S
C004   C005    1.400   1_565 S
C004   C016    1.438   .     D
C004   C018    1.439   .     S
C005   C004    1.400   1_545 S
C005   C006    1.438   .     S
C006   C007    1.440   .     S
C006   C009    1.400   1_655 D
C007   C020    1.408   .     S
C007   N001    1.389   .     D
C008   C009    1.439   .     S
C008   C014    1.401   1_545 D
C009   C006    1.400   1_455 D
C009   C010    1.438   .     S
C010   C011    1.410   .     S
C010   N002    1.391   .     D
C011   C012    1.408   .     S
C011   C020    1.450   1_455 D
C012   C015    1.438   .     S
C012   N003    1.394   .     D
C013   C014    1.438   .     S
C013   C019    1.408   .     D
C013   N003    1.395   .     S
C014   C008    1.401   1_565 D
C014   C015    1.440   .     S
C015   C018    1.401   1_455 D
C016   C019    1.409   .     S
C016   N004    1.391   .     S
C017   C018    1.439   .     S
C017   C020    1.408   .     S
C017   N004    1.394   .     D
C018   C015    1.401   1_655 D
C019   C001    1.449   1_565 S
C020   C011    1.450   1_655 D
N001   Fe001   2.015   .     S
N002   Fe001   1.990   .     S
N003   Fe001   1.977   .     S
N004   Fe001   1.992   .     S
N005   Fe001   1.864   .     S
N005   H001    1.027   .     S
N005   H002    1.027   .     S
