data_e-0.6-opt
_audit_creation_date              2024-12-22
_audit_creation_method            'Materials Studio'
_symmetry_space_group_name_H-M    'P1'
_symmetry_Int_Tables_number       1
_symmetry_cell_setting            triclinic
loop_
_symmetry_equiv_pos_as_xyz
  x,y,z
_cell_length_a                    8.3949
_cell_length_b                    8.3949
_cell_length_c                    20.0381
_cell_angle_alpha                 90.0000
_cell_angle_beta                  90.0000
_cell_angle_gamma                 90.0000
loop_
_atom_site_label
_atom_site_type_symbol
_atom_site_fract_x
_atom_site_fract_y
_atom_site_fract_z
_atom_site_U_iso_or_equiv
_atom_site_adp_type
_atom_site_occupancy
C001   C     0.50413   0.08075   0.14012   1.00000  Uiso   1.00
C002   C     0.35748   0.16230   0.14072   1.00000  Uiso   1.00
C003   C     0.65053   0.16264   0.13904   1.00000  Uiso   1.00
C004   C     0.79992   0.91080   0.13984   1.00000  Uiso   1.00
C005   C     0.79937   0.07828   0.13886   1.00000  Uiso   1.00
C006   C     0.92020   0.19915   0.13894   1.00000  Uiso   1.00
C007   C     0.83576   0.34800   0.13934   1.00000  Uiso   1.00
C008   C     0.20878   0.07776   0.13963   1.00000  Uiso   1.00
C009   C     0.08767   0.19859   0.13977   1.00000  Uiso   1.00
C010   C     0.17191   0.34735   0.14084   1.00000  Uiso   1.00
C011   C     0.09034   0.49408   0.14023   1.00000  Uiso   1.00
C012   C     0.17233   0.64036   0.13845   1.00000  Uiso   1.00
C013   C     0.35812   0.82616   0.13819   1.00000  Uiso   1.00
C014   C     0.20932   0.91017   0.13854   1.00000  Uiso   1.00
C015   C     0.08828   0.78916   0.13871   1.00000  Uiso   1.00
C016   C     0.65114   0.82657   0.14092   1.00000  Uiso   1.00
C017   C     0.83605   0.64101   0.14137   1.00000  Uiso   1.00
C018   C     0.92071   0.78968   0.13996   1.00000  Uiso   1.00
C019   C     0.50444   0.90814   0.13991   1.00000  Uiso   1.00
C020   C     0.91765   0.49439   0.14067   1.00000  Uiso   1.00
N001   N     0.67118   0.32721   0.13852   1.00000  Uiso   1.00
N002   N     0.33654   0.32705   0.14173   1.00000  Uiso   1.00
N003   N     0.33740   0.66110   0.13669   1.00000  Uiso   1.00
N004   N     0.67133   0.66200   0.14236   1.00000  Uiso   1.00
N005   N     0.49193   0.50229   0.23993   1.00000  Uiso   1.00
Fe001  Fe    0.50230   0.49566   0.15046   1.00000  Uiso   1.00
H001   H     0.52500   0.60519   0.26351   1.00000  Uiso   1.00
H002   H     0.39709   0.44911   0.26296   1.00000  Uiso   1.00
loop_
_geom_bond_atom_site_label_1
_geom_bond_atom_site_label_2
_geom_bond_distance
_geom_bond_site_symmetry_2
_ccdc_geom_bond_type
C001   C002    1.409   .     D
C001   C003    1.408   .     S
C001   C019    1.449   1_545 S
C002   C008    1.436   .     S
C002   N002    1.394   .     S
C003   C005    1.436   .     D
C003   N001    1.392   .     S
C004   C005    1.406   1_565 S
C004   C016    1.435   .     D
C004   C018    1.436   .     S
C005   C004    1.406   1_545 S
C005   C006    1.435   .     S
C006   C007    1.437   .     S
C006   C009    1.406   1_655 D
C007   C020    1.408   .     S
C007   N001    1.393   .     D
C008   C009    1.436   .     S
C008   C014    1.407   1_545 D
C009   C006    1.406   1_455 D
C009   C010    1.435   .     S
C010   C011    1.409   .     S
C010   N002    1.393   .     D
C011   C012    1.408   .     S
C011   C020    1.450   1_455 D
C012   C015    1.435   .     S
C012   N003    1.397   .     D
C013   C014    1.435   .     S
C013   C019    1.408   .     D
C013   N003    1.397   .     S
C014   C008    1.407   1_565 D
C014   C015    1.437   .     S
C015   C018    1.407   1_455 D
C016   C019    1.409   .     S
C016   N004    1.392   .     S
C017   C018    1.436   .     S
C017   C020    1.409   .     S
C017   N004    1.394   .     D
C018   C015    1.407   1_655 D
C019   C001    1.449   1_565 S
C020   C011    1.450   1_655 D
N001   Fe001   2.017   .     S
N002   Fe001   1.993   .     S
N003   Fe001   1.980   .     S
N004   Fe001   1.997   .     S
N005   Fe001   1.796   .     S
N005   H001    1.023   .     S
N005   H002    1.023   .     S
