data_e-0.4-opt
_audit_creation_date              2024-12-22
_audit_creation_method            'Materials Studio'
_symmetry_space_group_name_H-M    'P1'
_symmetry_Int_Tables_number       1
_symmetry_cell_setting            triclinic
loop_
_symmetry_equiv_pos_as_xyz
  x,y,z
_cell_length_a                    12.4752
_cell_length_b                    12.7382
_cell_length_c                    19.9906
_cell_angle_alpha                 90.0000
_cell_angle_beta                  90.0000
_cell_angle_gamma                 90.0000
loop_
_atom_site_label
_atom_site_type_symbol
_atom_site_fract_x
_atom_site_fract_y
_atom_site_fract_z
_atom_site_U_iso_or_equiv
_atom_site_adp_type
_atom_site_occupancy
C001   C     0.05197   0.04526   0.15415   1.00000  Uiso   1.00
C002   C     0.15243   0.10004   0.15412   1.00000  Uiso   1.00
C003   C     0.15183   0.21144   0.15349   1.00000  Uiso   1.00
C004   C     0.05196   0.26649   0.15300   1.00000  Uiso   1.00
C005   C     0.25327   0.04571   0.15435   1.00000  Uiso   1.00
C006   C     0.35336   0.10190   0.15475   1.00000  Uiso   1.00
C007   C     0.35236   0.21464   0.15439   1.00000  Uiso   1.00
C008   C     0.25100   0.26716   0.15323   1.00000  Uiso   1.00
C009   C     0.45348   0.04655   0.15547   1.00000  Uiso   1.00
C010   C     0.55196   0.10543   0.15612   1.00000  Uiso   1.00
C011   C     0.55195   0.22026   0.15681   1.00000  Uiso   1.00
C012   C     0.45025   0.27526   0.15599   1.00000  Uiso   1.00
C013   C     0.65044   0.04655   0.15556   1.00000  Uiso   1.00
C014   C     0.75056   0.10189   0.15495   1.00000  Uiso   1.00
C015   C     0.75156   0.21463   0.15477   1.00000  Uiso   1.00
C016   C     0.65364   0.27521   0.15629   1.00000  Uiso   1.00
C017   C     0.85067   0.04571   0.15451   1.00000  Uiso   1.00
C018   C     0.95150   0.10004   0.15422   1.00000  Uiso   1.00
C019   C     0.95210   0.21144   0.15372   1.00000  Uiso   1.00
C020   C     0.85293   0.26716   0.15378   1.00000  Uiso   1.00
C021   C     0.05196   0.37800   0.15190   1.00000  Uiso   1.00
C022   C     0.15025   0.43398   0.15120   1.00000  Uiso   1.00
C023   C     0.15025   0.54530   0.15088   1.00000  Uiso   1.00
C024   C     0.05195   0.60128   0.15130   1.00000  Uiso   1.00
C025   C     0.24909   0.37849   0.15188   1.00000  Uiso   1.00
C026   C     0.34687   0.43362   0.15271   1.00000  Uiso   1.00
C027   C     0.34686   0.54570   0.15228   1.00000  Uiso   1.00
C028   C     0.24908   0.60080   0.15122   1.00000  Uiso   1.00
C029   C     0.75698   0.43361   0.15403   1.00000  Uiso   1.00
C030   C     0.75700   0.54570   0.15361   1.00000  Uiso   1.00
C031   C     0.85482   0.37849   0.15292   1.00000  Uiso   1.00
C032   C     0.95364   0.43398   0.15188   1.00000  Uiso   1.00
C033   C     0.95365   0.54531   0.15156   1.00000  Uiso   1.00
C034   C     0.85483   0.60081   0.15227   1.00000  Uiso   1.00
C035   C     0.05196   0.71281   0.15206   1.00000  Uiso   1.00
C036   C     0.15183   0.76786   0.15256   1.00000  Uiso   1.00
C037   C     0.05197   0.93403   0.15383   1.00000  Uiso   1.00
C038   C     0.25099   0.71214   0.15227   1.00000  Uiso   1.00
C039   C     0.35235   0.76468   0.15348   1.00000  Uiso   1.00
C040   C     0.35336   0.87742   0.15420   1.00000  Uiso   1.00
C041   C     0.25327   0.93359   0.15405   1.00000  Uiso   1.00
C042   C     0.45024   0.70409   0.15501   1.00000  Uiso   1.00
C043   C     0.55195   0.75907   0.15589   1.00000  Uiso   1.00
C044   C     0.55196   0.87389   0.15558   1.00000  Uiso   1.00
C045   C     0.45348   0.93276   0.15519   1.00000  Uiso   1.00
C046   C     0.65366   0.70413   0.15530   1.00000  Uiso   1.00
C047   C     0.75157   0.76470   0.15386   1.00000  Uiso   1.00
C048   C     0.75057   0.87743   0.15440   1.00000  Uiso   1.00
C049   C     0.65044   0.93277   0.15528   1.00000  Uiso   1.00
C050   C     0.85293   0.71215   0.15282   1.00000  Uiso   1.00
C051   C     0.95210   0.76786   0.15278   1.00000  Uiso   1.00
C052   C     0.85067   0.93360   0.15420   1.00000  Uiso   1.00
C053   C     0.15243   0.87925   0.15352   1.00000  Uiso   1.00
C054   C     0.95150   0.87926   0.15362   1.00000  Uiso   1.00
N001   N     0.44491   0.38437   0.15604   1.00000  Uiso   1.00
N002   N     0.44488   0.59501   0.15515   1.00000  Uiso   1.00
N003   N     0.65890   0.38431   0.15653   1.00000  Uiso   1.00
N004   N     0.65894   0.59507   0.15560   1.00000  Uiso   1.00
N005   N     0.55590   0.49301   0.25872   1.00000  Uiso   1.00
Fe001  Fe    0.55175   0.48993   0.16954   1.00000  Uiso   1.00
O001   O     0.63272   0.49486   0.29671   1.00000  Uiso   1.00
O002   O     0.45128   0.49528   0.29178   1.00000  Uiso   1.00
H001   H     0.47033   0.49894   0.33961   1.00000  Uiso   1.00
loop_
_geom_bond_atom_site_label_1
_geom_bond_atom_site_label_2
_geom_bond_distance
_geom_bond_site_symmetry_2
_ccdc_geom_bond_type
C001   C002    1.435   .     D
C001   C018    1.434   1_455 S
C001   C037    1.417   1_545 S
C002   C003    1.419   .     S
C002   C005    1.436   .     S
C003   C004    1.430   .     D
C003   C008    1.426   .     S
C004   C019    1.430   1_455 S
C004   C021    1.421   .     S
C005   C006    1.439   .     S
C005   C041    1.428   1_545 D
C006   C007    1.436   .     S
C006   C009    1.434   .     D
C007   C008    1.431   .     S
C007   C012    1.445   .     D
C008   C025    1.419   .     D
C009   C010    1.439   .     S
C009   C045    1.449   1_545 S
C010   C011    1.463   .     D
C010   C013    1.439   .     S
C011   C012    1.449   .     S
C011   C016    1.449   .     S
C012   N001    1.391   .     S
C013   C014    1.434   .     D
C013   C049    1.449   1_545 S
C014   C015    1.436   .     S
C014   C017    1.439   .     S
C015   C016    1.445   .     S
C015   C020    1.431   .     D
C016   N003    1.391   .     D
C017   C018    1.436   .     S
C017   C052    1.428   1_545 D
C018   C001    1.434   1_655 S
C018   C019    1.419   .     D
C019   C004    1.430   1_655 S
C019   C020    1.426   .     S
C020   C031    1.418   .     S
C021   C022    1.419   .     D
C021   C032    1.419   1_455 S
C022   C023    1.418   .     S
C022   C025    1.421   .     S
C023   C024    1.419   .     D
C023   C028    1.421   .     S
C024   C033    1.419   1_455 S
C024   C035    1.421   .     S
C025   C026    1.408   .     S
C026   C027    1.428   .     S
C026   N001    1.376   .     D
C027   C028    1.408   .     S
C027   N002    1.376   .     D
C028   C038    1.419   .     D
C029   C030    1.428   .     S
C029   C031    1.408   .     D
C029   N003    1.376   .     S
C030   C034    1.408   .     S
C030   N004    1.376   .     D
C031   C032    1.421   .     S
C032   C021    1.419   1_655 S
C032   C033    1.418   .     D
C033   C024    1.419   1_655 S
C033   C034    1.421   .     S
C034   C050    1.419   .     D
C035   C036    1.430   .     S
C035   C051    1.430   1_455 D
C036   C038    1.426   .     S
C036   C053    1.419   .     D
C037   C001    1.417   1_565 S
C037   C053    1.434   .     S
C037   C054    1.434   1_455 D
C038   C039    1.431   .     S
C039   C040    1.436   .     S
C039   C042    1.445   .     D
C040   C041    1.439   .     S
C040   C045    1.434   .     D
C041   C005    1.428   1_565 D
C041   C053    1.436   .     S
C042   C043    1.449   .     S
C042   N002    1.391   .     S
C043   C044    1.463   .     S
C043   C046    1.449   .     D
C044   C045    1.439   .     S
C044   C049    1.439   .     D
C045   C009    1.449   1_565 S
C046   C047    1.445   .     S
C046   N004    1.391   .     S
C047   C048    1.436   .     D
C047   C050    1.431   .     S
C048   C049    1.434   .     S
C048   C052    1.439   .     S
C049   C013    1.449   1_565 S
C050   C051    1.426   .     S
C051   C035    1.430   1_655 D
C051   C054    1.419   .     S
C052   C017    1.428   1_565 D
C052   C054    1.436   .     S
C054   C037    1.434   1_655 D
N001   Fe001   1.912   .     S
N002   Fe001   1.911   .     S
N003   Fe001   1.914   .     S
N004   Fe001   1.913   .     S
N005   Fe001   1.784   .     S
N005   O001    1.223   .     D
N005   O002    1.463   .     S
O002   H001    0.986   .     S
