data_e+0.6-opt
_audit_creation_date              2024-12-22
_audit_creation_method            'Materials Studio'
_symmetry_space_group_name_H-M    'P1'
_symmetry_Int_Tables_number       1
_symmetry_cell_setting            triclinic
loop_
_symmetry_equiv_pos_as_xyz
  x,y,z
_cell_length_a                    12.4752
_cell_length_b                    12.7382
_cell_length_c                    19.9906
_cell_angle_alpha                 90.0000
_cell_angle_beta                  90.0000
_cell_angle_gamma                 90.0000
loop_
_atom_site_label
_atom_site_type_symbol
_atom_site_fract_x
_atom_site_fract_y
_atom_site_fract_z
_atom_site_U_iso_or_equiv
_atom_site_adp_type
_atom_site_occupancy
C001   C     0.05197   0.04527   0.15414   1.00000  Uiso   1.00
C002   C     0.15241   0.10006   0.15411   1.00000  Uiso   1.00
C003   C     0.15179   0.21143   0.15349   1.00000  Uiso   1.00
C004   C     0.05196   0.26649   0.15299   1.00000  Uiso   1.00
C005   C     0.25324   0.04569   0.15435   1.00000  Uiso   1.00
C006   C     0.35334   0.10188   0.15475   1.00000  Uiso   1.00
C007   C     0.35231   0.21463   0.15435   1.00000  Uiso   1.00
C008   C     0.25103   0.26718   0.15320   1.00000  Uiso   1.00
C009   C     0.45341   0.04654   0.15549   1.00000  Uiso   1.00
C010   C     0.55195   0.10549   0.15617   1.00000  Uiso   1.00
C011   C     0.55194   0.22023   0.15688   1.00000  Uiso   1.00
C012   C     0.45020   0.27525   0.15592   1.00000  Uiso   1.00
C013   C     0.65050   0.04655   0.15559   1.00000  Uiso   1.00
C014   C     0.75058   0.10188   0.15495   1.00000  Uiso   1.00
C015   C     0.75160   0.21462   0.15474   1.00000  Uiso   1.00
C016   C     0.65368   0.27520   0.15622   1.00000  Uiso   1.00
C017   C     0.85069   0.04569   0.15451   1.00000  Uiso   1.00
C018   C     0.95153   0.10005   0.15421   1.00000  Uiso   1.00
C019   C     0.95214   0.21142   0.15371   1.00000  Uiso   1.00
C020   C     0.85290   0.26717   0.15375   1.00000  Uiso   1.00
C021   C     0.05197   0.37805   0.15186   1.00000  Uiso   1.00
C022   C     0.15028   0.43401   0.15118   1.00000  Uiso   1.00
C023   C     0.15028   0.54529   0.15085   1.00000  Uiso   1.00
C024   C     0.05197   0.60124   0.15126   1.00000  Uiso   1.00
C025   C     0.24913   0.37847   0.15180   1.00000  Uiso   1.00
C026   C     0.34698   0.43355   0.15249   1.00000  Uiso   1.00
C027   C     0.34697   0.54577   0.15206   1.00000  Uiso   1.00
C028   C     0.24912   0.60084   0.15114   1.00000  Uiso   1.00
C029   C     0.75696   0.43356   0.15377   1.00000  Uiso   1.00
C030   C     0.75697   0.54576   0.15335   1.00000  Uiso   1.00
C031   C     0.85484   0.37845   0.15285   1.00000  Uiso   1.00
C032   C     0.95365   0.43400   0.15186   1.00000  Uiso   1.00
C033   C     0.95365   0.54529   0.15154   1.00000  Uiso   1.00
C034   C     0.85485   0.60085   0.15219   1.00000  Uiso   1.00
C035   C     0.05196   0.71281   0.15205   1.00000  Uiso   1.00
C036   C     0.15179   0.76788   0.15255   1.00000  Uiso   1.00
C037   C     0.05196   0.93403   0.15382   1.00000  Uiso   1.00
C038   C     0.25102   0.71213   0.15225   1.00000  Uiso   1.00
C039   C     0.35230   0.76470   0.15345   1.00000  Uiso   1.00
C040   C     0.35334   0.87744   0.15419   1.00000  Uiso   1.00
C041   C     0.25324   0.93362   0.15405   1.00000  Uiso   1.00
C042   C     0.45018   0.70410   0.15495   1.00000  Uiso   1.00
C043   C     0.55194   0.75910   0.15596   1.00000  Uiso   1.00
C044   C     0.55195   0.87383   0.15563   1.00000  Uiso   1.00
C045   C     0.45341   0.93277   0.15521   1.00000  Uiso   1.00
C046   C     0.65369   0.70416   0.15523   1.00000  Uiso   1.00
C047   C     0.75161   0.76471   0.15383   1.00000  Uiso   1.00
C048   C     0.75058   0.87744   0.15440   1.00000  Uiso   1.00
C049   C     0.65050   0.93277   0.15531   1.00000  Uiso   1.00
C050   C     0.85290   0.71214   0.15279   1.00000  Uiso   1.00
C051   C     0.95214   0.76789   0.15277   1.00000  Uiso   1.00
C052   C     0.85069   0.93363   0.15421   1.00000  Uiso   1.00
C053   C     0.15241   0.87924   0.15351   1.00000  Uiso   1.00
C054   C     0.95153   0.87925   0.15362   1.00000  Uiso   1.00
N001   N     0.44476   0.38422   0.15594   1.00000  Uiso   1.00
N002   N     0.44473   0.59517   0.15508   1.00000  Uiso   1.00
N003   N     0.65910   0.38421   0.15640   1.00000  Uiso   1.00
N004   N     0.65914   0.59517   0.15549   1.00000  Uiso   1.00
N005   N     0.55746   0.49284   0.25786   1.00000  Uiso   1.00
Fe001  Fe    0.55195   0.48997   0.17015   1.00000  Uiso   1.00
O001   O     0.63248   0.49484   0.29788   1.00000  Uiso   1.00
O002   O     0.44832   0.49516   0.29289   1.00000  Uiso   1.00
H001   H     0.47143   0.49908   0.33971   1.00000  Uiso   1.00
loop_
_geom_bond_atom_site_label_1
_geom_bond_atom_site_label_2
_geom_bond_distance
_geom_bond_site_symmetry_2
_ccdc_geom_bond_type
C001   C002    1.434   .     D
C001   C018    1.434   1_455 S
C001   C037    1.417   1_545 S
C002   C003    1.419   .     S
C002   C005    1.436   .     S
C003   C004    1.429   .     D
C003   C008    1.427   .     S
C004   C019    1.429   1_455 S
C004   C021    1.421   .     S
C005   C006    1.439   .     S
C005   C041    1.427   1_545 D
C006   C007    1.436   .     S
C006   C009    1.434   .     D
C007   C008    1.430   .     S
C007   C012    1.445   .     D
C008   C025    1.418   .     D
C009   C010    1.441   .     S
C009   C045    1.449   1_545 S
C010   C011    1.462   .     D
C010   C013    1.441   .     S
C011   C012    1.450   .     S
C011   C016    1.450   .     S
C012   N001    1.390   .     S
C013   C014    1.434   .     D
C013   C049    1.449   1_545 S
C014   C015    1.436   .     S
C014   C017    1.440   .     S
C015   C016    1.445   .     S
C015   C020    1.430   .     D
C016   N003    1.390   .     D
C017   C018    1.436   .     S
C017   C052    1.427   1_545 D
C018   C001    1.434   1_655 S
C018   C019    1.419   .     D
C019   C004    1.429   1_655 S
C019   C020    1.427   .     S
C020   C031    1.418   .     S
C021   C022    1.419   .     D
C021   C032    1.419   1_455 S
C022   C023    1.418   .     S
C022   C025    1.422   .     S
C023   C024    1.419   .     D
C023   C028    1.422   .     S
C024   C033    1.419   1_455 S
C024   C035    1.421   .     S
C025   C026    1.408   .     S
C026   C027    1.429   .     S
C026   N001    1.374   .     D
C027   C028    1.408   .     S
C027   N002    1.374   .     D
C028   C038    1.418   .     D
C029   C030    1.429   .     S
C029   C031    1.409   .     D
C029   N003    1.374   .     S
C030   C034    1.409   .     S
C030   N004    1.374   .     D
C031   C032    1.422   .     S
C032   C021    1.419   1_655 S
C032   C033    1.418   .     D
C033   C024    1.419   1_655 S
C033   C034    1.421   .     S
C034   C050    1.418   .     D
C035   C036    1.429   .     S
C035   C051    1.429   1_455 D
C036   C038    1.427   .     S
C036   C053    1.419   .     D
C037   C001    1.417   1_565 S
C037   C053    1.434   .     S
C037   C054    1.434   1_455 D
C038   C039    1.430   .     S
C039   C040    1.436   .     S
C039   C042    1.445   .     D
C040   C041    1.439   .     S
C040   C045    1.434   .     D
C041   C005    1.427   1_565 D
C041   C053    1.436   .     S
C042   C043    1.450   .     S
C042   N002    1.389   .     S
C043   C044    1.461   .     S
C043   C046    1.450   .     D
C044   C045    1.441   .     S
C044   C049    1.441   .     D
C045   C009    1.449   1_565 S
C046   C047    1.445   .     S
C046   N004    1.390   .     S
C047   C048    1.436   .     D
C047   C050    1.430   .     S
C048   C049    1.434   .     S
C048   C052    1.439   .     S
C049   C013    1.449   1_565 S
C050   C051    1.427   .     S
C051   C035    1.429   1_655 D
C051   C054    1.419   .     S
C052   C017    1.427   1_565 D
C052   C054    1.436   .     S
C054   C037    1.434   1_655 D
N001   Fe001   1.919   .     S
N002   Fe001   1.917   .     S
N003   Fe001   1.918   .     S
N004   Fe001   1.916   .     S
N005   Fe001   1.755   .     S
N005   O001    1.232   .     D
N005   O002    1.531   .     S
O002   H001    0.981   .     S
