data_e+0.0-opt
_audit_creation_date              2024-12-22
_audit_creation_method            'Materials Studio'
_symmetry_space_group_name_H-M    'P1'
_symmetry_Int_Tables_number       1
_symmetry_cell_setting            triclinic
loop_
_symmetry_equiv_pos_as_xyz
  x,y,z
_cell_length_a                    12.4752
_cell_length_b                    12.7382
_cell_length_c                    19.9906
_cell_angle_alpha                 90.0000
_cell_angle_beta                  90.0000
_cell_angle_gamma                 90.0000
loop_
_atom_site_label
_atom_site_type_symbol
_atom_site_fract_x
_atom_site_fract_y
_atom_site_fract_z
_atom_site_U_iso_or_equiv
_atom_site_adp_type
_atom_site_occupancy
C001   C     0.05198   0.04526   0.15415   1.00000  Uiso   1.00
C002   C     0.15244   0.10004   0.15413   1.00000  Uiso   1.00
C003   C     0.15183   0.21144   0.15353   1.00000  Uiso   1.00
C004   C     0.05197   0.26649   0.15306   1.00000  Uiso   1.00
C005   C     0.25327   0.04571   0.15435   1.00000  Uiso   1.00
C006   C     0.35337   0.10190   0.15474   1.00000  Uiso   1.00
C007   C     0.35235   0.21464   0.15438   1.00000  Uiso   1.00
C008   C     0.25102   0.26717   0.15326   1.00000  Uiso   1.00
C009   C     0.45348   0.04654   0.15546   1.00000  Uiso   1.00
C010   C     0.55196   0.10543   0.15612   1.00000  Uiso   1.00
C011   C     0.55195   0.22026   0.15682   1.00000  Uiso   1.00
C012   C     0.45026   0.27526   0.15595   1.00000  Uiso   1.00
C013   C     0.65045   0.04654   0.15555   1.00000  Uiso   1.00
C014   C     0.75057   0.10189   0.15494   1.00000  Uiso   1.00
C015   C     0.75158   0.21463   0.15476   1.00000  Uiso   1.00
C016   C     0.65364   0.27522   0.15625   1.00000  Uiso   1.00
C017   C     0.85068   0.04571   0.15450   1.00000  Uiso   1.00
C018   C     0.95151   0.10004   0.15423   1.00000  Uiso   1.00
C019   C     0.95211   0.21144   0.15375   1.00000  Uiso   1.00
C020   C     0.85292   0.26716   0.15380   1.00000  Uiso   1.00
C021   C     0.05196   0.37801   0.15197   1.00000  Uiso   1.00
C022   C     0.15027   0.43398   0.15129   1.00000  Uiso   1.00
C023   C     0.15027   0.54529   0.15096   1.00000  Uiso   1.00
C024   C     0.05196   0.60127   0.15136   1.00000  Uiso   1.00
C025   C     0.24910   0.37849   0.15191   1.00000  Uiso   1.00
C026   C     0.34691   0.43361   0.15262   1.00000  Uiso   1.00
C027   C     0.34690   0.54569   0.15219   1.00000  Uiso   1.00
C028   C     0.24909   0.60080   0.15124   1.00000  Uiso   1.00
C029   C     0.75698   0.43361   0.15394   1.00000  Uiso   1.00
C030   C     0.75700   0.54569   0.15351   1.00000  Uiso   1.00
C031   C     0.85485   0.37848   0.15294   1.00000  Uiso   1.00
C032   C     0.95364   0.43398   0.15195   1.00000  Uiso   1.00
C033   C     0.95365   0.54530   0.15163   1.00000  Uiso   1.00
C034   C     0.85486   0.60081   0.15228   1.00000  Uiso   1.00
C035   C     0.05197   0.71280   0.15211   1.00000  Uiso   1.00
C036   C     0.15183   0.76785   0.15259   1.00000  Uiso   1.00
C037   C     0.05198   0.93402   0.15383   1.00000  Uiso   1.00
C038   C     0.25101   0.71213   0.15229   1.00000  Uiso   1.00
C039   C     0.35234   0.76467   0.15346   1.00000  Uiso   1.00
C040   C     0.35337   0.87740   0.15418   1.00000  Uiso   1.00
C041   C     0.25327   0.93359   0.15405   1.00000  Uiso   1.00
C042   C     0.45025   0.70407   0.15495   1.00000  Uiso   1.00
C043   C     0.55195   0.75905   0.15588   1.00000  Uiso   1.00
C044   C     0.55197   0.87387   0.15556   1.00000  Uiso   1.00
C045   C     0.45348   0.93276   0.15517   1.00000  Uiso   1.00
C046   C     0.65365   0.70412   0.15524   1.00000  Uiso   1.00
C047   C     0.75159   0.76469   0.15384   1.00000  Uiso   1.00
C048   C     0.75057   0.87741   0.15438   1.00000  Uiso   1.00
C049   C     0.65046   0.93276   0.15526   1.00000  Uiso   1.00
C050   C     0.85292   0.71213   0.15282   1.00000  Uiso   1.00
C051   C     0.95211   0.76785   0.15280   1.00000  Uiso   1.00
C052   C     0.85068   0.93359   0.15419   1.00000  Uiso   1.00
C053   C     0.15244   0.87924   0.15352   1.00000  Uiso   1.00
C054   C     0.95151   0.87925   0.15362   1.00000  Uiso   1.00
N001   N     0.44488   0.38433   0.15595   1.00000  Uiso   1.00
N002   N     0.44484   0.59504   0.15505   1.00000  Uiso   1.00
N003   N     0.65896   0.38430   0.15643   1.00000  Uiso   1.00
N004   N     0.65901   0.59507   0.15550   1.00000  Uiso   1.00
N005   N     0.55647   0.49299   0.25824   1.00000  Uiso   1.00
Fe001  Fe    0.55183   0.48994   0.16979   1.00000  Uiso   1.00
O001   O     0.63250   0.49501   0.29718   1.00000  Uiso   1.00
O002   O     0.45001   0.49526   0.29203   1.00000  Uiso   1.00
H001   H     0.47068   0.49916   0.33945   1.00000  Uiso   1.00
loop_
_geom_bond_atom_site_label_1
_geom_bond_atom_site_label_2
_geom_bond_distance
_geom_bond_site_symmetry_2
_ccdc_geom_bond_type
C001   C002    1.435   .     D
C001   C018    1.434   1_455 S
C001   C037    1.417   1_545 S
C002   C003    1.419   .     S
C002   C005    1.436   .     S
C003   C004    1.430   .     D
C003   C008    1.427   .     S
C004   C019    1.430   1_455 S
C004   C021    1.421   .     S
C005   C006    1.439   .     S
C005   C041    1.428   1_545 D
C006   C007    1.436   .     S
C006   C009    1.434   .     D
C007   C008    1.430   .     S
C007   C012    1.445   .     D
C008   C025    1.418   .     D
C009   C010    1.440   .     S
C009   C045    1.449   1_545 S
C010   C011    1.463   .     D
C010   C013    1.440   .     S
C011   C012    1.449   .     S
C011   C016    1.449   .     S
C012   N001    1.391   .     S
C013   C014    1.434   .     D
C013   C049    1.449   1_545 S
C014   C015    1.436   .     S
C014   C017    1.439   .     S
C015   C016    1.445   .     S
C015   C020    1.431   .     D
C016   N003    1.391   .     D
C017   C018    1.436   .     S
C017   C052    1.428   1_545 D
C018   C001    1.434   1_655 S
C018   C019    1.419   .     D
C019   C004    1.430   1_655 S
C019   C020    1.427   .     S
C020   C031    1.418   .     S
C021   C022    1.419   .     D
C021   C032    1.419   1_455 S
C022   C023    1.418   .     S
C022   C025    1.421   .     S
C023   C024    1.419   .     D
C023   C028    1.421   .     S
C024   C033    1.419   1_455 S
C024   C035    1.421   .     S
C025   C026    1.408   .     S
C026   C027    1.428   .     S
C026   N001    1.375   .     D
C027   C028    1.408   .     S
C027   N002    1.375   .     D
C028   C038    1.418   .     D
C029   C030    1.428   .     S
C029   C031    1.409   .     D
C029   N003    1.376   .     S
C030   C034    1.408   .     S
C030   N004    1.375   .     D
C031   C032    1.421   .     S
C032   C021    1.419   1_655 S
C032   C033    1.418   .     D
C033   C024    1.419   1_655 S
C033   C034    1.421   .     S
C034   C050    1.418   .     D
C035   C036    1.430   .     S
C035   C051    1.430   1_455 D
C036   C038    1.427   .     S
C036   C053    1.419   .     D
C037   C001    1.417   1_565 S
C037   C053    1.435   .     S
C037   C054    1.434   1_455 D
C038   C039    1.431   .     S
C039   C040    1.436   .     S
C039   C042    1.445   .     D
C040   C041    1.439   .     S
C040   C045    1.434   .     D
C041   C005    1.428   1_565 D
C041   C053    1.436   .     S
C042   C043    1.449   .     S
C042   N002    1.391   .     S
C043   C044    1.463   .     S
C043   C046    1.449   .     D
C044   C045    1.440   .     S
C044   C049    1.440   .     D
C045   C009    1.449   1_565 S
C046   C047    1.445   .     S
C046   N004    1.391   .     S
C047   C048    1.436   .     D
C047   C050    1.431   .     S
C048   C049    1.434   .     S
C048   C052    1.439   .     S
C049   C013    1.449   1_565 S
C050   C051    1.427   .     S
C051   C035    1.430   1_655 D
C051   C054    1.419   .     S
C052   C017    1.428   1_565 D
C052   C054    1.436   .     S
C054   C037    1.434   1_655 D
N001   Fe001   1.915   .     S
N002   Fe001   1.913   .     S
N003   Fe001   1.915   .     S
N004   Fe001   1.914   .     S
N005   Fe001   1.769   .     S
N005   O001    1.227   .     D
N005   O002    1.490   .     S
O002   H001    0.984   .     S
