data_e+1.0-opt
_audit_creation_date              2024-12-22
_audit_creation_method            'Materials Studio'
_symmetry_space_group_name_H-M    'P1'
_symmetry_Int_Tables_number       1
_symmetry_cell_setting            triclinic
loop_
_symmetry_equiv_pos_as_xyz
  x,y,z
_cell_length_a                    12.4752
_cell_length_b                    12.7382
_cell_length_c                    19.9906
_cell_angle_alpha                 90.0000
_cell_angle_beta                  90.0000
_cell_angle_gamma                 90.0000
loop_
_atom_site_label
_atom_site_type_symbol
_atom_site_fract_x
_atom_site_fract_y
_atom_site_fract_z
_atom_site_U_iso_or_equiv
_atom_site_adp_type
_atom_site_occupancy
C001   C     0.05197   0.04525   0.15415   1.00000  Uiso   1.00
C002   C     0.15232   0.10007   0.15412   1.00000  Uiso   1.00
C003   C     0.15168   0.21134   0.15350   1.00000  Uiso   1.00
C004   C     0.05196   0.26647   0.15301   1.00000  Uiso   1.00
C005   C     0.25320   0.04561   0.15435   1.00000  Uiso   1.00
C006   C     0.35333   0.10184   0.15474   1.00000  Uiso   1.00
C007   C     0.35225   0.21455   0.15435   1.00000  Uiso   1.00
C008   C     0.25107   0.26718   0.15320   1.00000  Uiso   1.00
C009   C     0.45327   0.04649   0.15549   1.00000  Uiso   1.00
C010   C     0.55196   0.10562   0.15615   1.00000  Uiso   1.00
C011   C     0.55194   0.22007   0.15688   1.00000  Uiso   1.00
C012   C     0.45007   0.27516   0.15593   1.00000  Uiso   1.00
C013   C     0.65065   0.04649   0.15559   1.00000  Uiso   1.00
C014   C     0.75059   0.10183   0.15494   1.00000  Uiso   1.00
C015   C     0.75166   0.21454   0.15474   1.00000  Uiso   1.00
C016   C     0.65382   0.27511   0.15624   1.00000  Uiso   1.00
C017   C     0.85073   0.04561   0.15450   1.00000  Uiso   1.00
C018   C     0.95162   0.10006   0.15422   1.00000  Uiso   1.00
C019   C     0.95225   0.21134   0.15373   1.00000  Uiso   1.00
C020   C     0.85286   0.26717   0.15375   1.00000  Uiso   1.00
C021   C     0.05197   0.37810   0.15188   1.00000  Uiso   1.00
C022   C     0.15023   0.43404   0.15119   1.00000  Uiso   1.00
C023   C     0.15023   0.54524   0.15087   1.00000  Uiso   1.00
C024   C     0.05197   0.60119   0.15128   1.00000  Uiso   1.00
C025   C     0.24915   0.37838   0.15182   1.00000  Uiso   1.00
C026   C     0.34706   0.43340   0.15261   1.00000  Uiso   1.00
C027   C     0.34705   0.54592   0.15218   1.00000  Uiso   1.00
C028   C     0.24915   0.60092   0.15116   1.00000  Uiso   1.00
C029   C     0.75688   0.43341   0.15388   1.00000  Uiso   1.00
C030   C     0.75689   0.54591   0.15346   1.00000  Uiso   1.00
C031   C     0.85480   0.37837   0.15286   1.00000  Uiso   1.00
C032   C     0.95369   0.43404   0.15187   1.00000  Uiso   1.00
C033   C     0.95370   0.54525   0.15155   1.00000  Uiso   1.00
C034   C     0.85481   0.60093   0.15220   1.00000  Uiso   1.00
C035   C     0.05196   0.71283   0.15207   1.00000  Uiso   1.00
C036   C     0.15168   0.76797   0.15257   1.00000  Uiso   1.00
C037   C     0.05197   0.93404   0.15383   1.00000  Uiso   1.00
C038   C     0.25106   0.71213   0.15225   1.00000  Uiso   1.00
C039   C     0.35224   0.76478   0.15344   1.00000  Uiso   1.00
C040   C     0.35333   0.87747   0.15419   1.00000  Uiso   1.00
C041   C     0.25320   0.93369   0.15404   1.00000  Uiso   1.00
C042   C     0.45005   0.70419   0.15495   1.00000  Uiso   1.00
C043   C     0.55194   0.75926   0.15595   1.00000  Uiso   1.00
C044   C     0.55196   0.87369   0.15561   1.00000  Uiso   1.00
C045   C     0.45327   0.93282   0.15521   1.00000  Uiso   1.00
C046   C     0.65383   0.70424   0.15525   1.00000  Uiso   1.00
C047   C     0.75168   0.76479   0.15383   1.00000  Uiso   1.00
C048   C     0.75060   0.87748   0.15439   1.00000  Uiso   1.00
C049   C     0.65065   0.93282   0.15531   1.00000  Uiso   1.00
C050   C     0.85286   0.71214   0.15279   1.00000  Uiso   1.00
C051   C     0.95225   0.76797   0.15279   1.00000  Uiso   1.00
C052   C     0.85074   0.93370   0.15420   1.00000  Uiso   1.00
C053   C     0.15232   0.87923   0.15352   1.00000  Uiso   1.00
C054   C     0.95162   0.87924   0.15363   1.00000  Uiso   1.00
N001   N     0.44451   0.38397   0.15613   1.00000  Uiso   1.00
N002   N     0.44447   0.59542   0.15526   1.00000  Uiso   1.00
N003   N     0.65935   0.38396   0.15662   1.00000  Uiso   1.00
N004   N     0.65939   0.59542   0.15571   1.00000  Uiso   1.00
N005   N     0.55715   0.49288   0.25772   1.00000  Uiso   1.00
Fe001  Fe    0.55190   0.48997   0.16980   1.00000  Uiso   1.00
O001   O     0.63239   0.49486   0.29745   1.00000  Uiso   1.00
O002   O     0.44889   0.49519   0.29248   1.00000  Uiso   1.00
H001   H     0.47129   0.49906   0.33950   1.00000  Uiso   1.00
loop_
_geom_bond_atom_site_label_1
_geom_bond_atom_site_label_2
_geom_bond_distance
_geom_bond_site_symmetry_2
_ccdc_geom_bond_type
C001   C002    1.433   .     D
C001   C018    1.433   1_455 S
C001   C037    1.417   1_545 S
C002   C003    1.417   .     S
C002   C005    1.437   .     S
C003   C004    1.429   .     D
C003   C008    1.429   .     S
C004   C019    1.429   1_455 S
C004   C021    1.422   .     S
C005   C006    1.440   .     S
C005   C041    1.426   1_545 D
C006   C007    1.436   .     S
C006   C009    1.432   .     D
C007   C008    1.429   .     S
C007   C012    1.444   .     D
C008   C025    1.417   .     D
C009   C010    1.443   .     S
C009   C045    1.448   1_545 S
C010   C011    1.458   .     D
C010   C013    1.443   .     S
C011   C012    1.452   .     S
C011   C016    1.452   .     S
C012   N001    1.388   .     S
C013   C014    1.432   .     D
C013   C049    1.448   1_545 S
C014   C015    1.436   .     S
C014   C017    1.440   .     S
C015   C016    1.444   .     S
C015   C020    1.430   .     D
C016   N003    1.388   .     D
C017   C018    1.437   .     S
C017   C052    1.426   1_545 D
C018   C001    1.433   1_655 S
C018   C019    1.418   .     D
C019   C004    1.429   1_655 S
C019   C020    1.429   .     S
C020   C031    1.417   .     S
C021   C022    1.418   .     D
C021   C032    1.418   1_455 S
C022   C023    1.417   .     S
C022   C025    1.423   .     S
C023   C024    1.418   .     D
C023   C028    1.423   .     S
C024   C033    1.418   1_455 S
C024   C035    1.422   .     S
C025   C026    1.408   .     S
C026   C027    1.433   .     S
C026   N001    1.371   .     D
C027   C028    1.408   .     S
C027   N002    1.371   .     D
C028   C038    1.417   .     D
C029   C030    1.433   .     S
C029   C031    1.409   .     D
C029   N003    1.371   .     S
C030   C034    1.409   .     S
C030   N004    1.371   .     D
C031   C032    1.423   .     S
C032   C021    1.418   1_655 S
C032   C033    1.417   .     D
C033   C024    1.418   1_655 S
C033   C034    1.423   .     S
C034   C050    1.417   .     D
C035   C036    1.429   .     S
C035   C051    1.429   1_455 D
C036   C038    1.429   .     S
C036   C053    1.417   .     D
C037   C001    1.417   1_565 S
C037   C053    1.433   .     S
C037   C054    1.433   1_455 D
C038   C039    1.429   .     S
C039   C040    1.436   .     S
C039   C042    1.444   .     D
C040   C041    1.440   .     S
C040   C045    1.432   .     D
C041   C005    1.426   1_565 D
C041   C053    1.437   .     S
C042   C043    1.452   .     S
C042   N002    1.387   .     S
C043   C044    1.458   .     S
C043   C046    1.451   .     D
C044   C045    1.443   .     S
C044   C049    1.443   .     D
C045   C009    1.448   1_565 S
C046   C047    1.444   .     S
C046   N004    1.388   .     S
C047   C048    1.436   .     D
C047   C050    1.430   .     S
C048   C049    1.432   .     S
C048   C052    1.440   .     S
C049   C013    1.448   1_565 S
C050   C051    1.429   .     S
C051   C035    1.429   1_655 D
C051   C054    1.418   .     S
C052   C017    1.426   1_565 D
C052   C054    1.437   .     S
C054   C037    1.433   1_655 D
N001   Fe001   1.922   .     S
N002   Fe001   1.920   .     S
N003   Fe001   1.921   .     S
N004   Fe001   1.919   .     S
N005   Fe001   1.759   .     S
N005   O001    1.230   .     D
N005   O002    1.519   .     S
O002   H001    0.982   .     S
