data_e-1.0-opt
_audit_creation_date              2024-12-22
_audit_creation_method            'Materials Studio'
_symmetry_space_group_name_H-M    'P1'
_symmetry_Int_Tables_number       1
_symmetry_cell_setting            triclinic
loop_
_symmetry_equiv_pos_as_xyz
  x,y,z
_cell_length_a                    12.4752
_cell_length_b                    12.7382
_cell_length_c                    19.9906
_cell_angle_alpha                 90.0000
_cell_angle_beta                  90.0000
_cell_angle_gamma                 90.0000
loop_
_atom_site_label
_atom_site_type_symbol
_atom_site_fract_x
_atom_site_fract_y
_atom_site_fract_z
_atom_site_U_iso_or_equiv
_atom_site_adp_type
_atom_site_occupancy
C001   C     0.05196   0.04527   0.15410   1.00000  Uiso   1.00
C002   C     0.15231   0.10006   0.15405   1.00000  Uiso   1.00
C003   C     0.15170   0.21137   0.15339   1.00000  Uiso   1.00
C004   C     0.05194   0.26646   0.15287   1.00000  Uiso   1.00
C005   C     0.25318   0.04563   0.15429   1.00000  Uiso   1.00
C006   C     0.35331   0.10182   0.15471   1.00000  Uiso   1.00
C007   C     0.35226   0.21455   0.15439   1.00000  Uiso   1.00
C008   C     0.25098   0.26715   0.15320   1.00000  Uiso   1.00
C009   C     0.45328   0.04649   0.15543   1.00000  Uiso   1.00
C010   C     0.55195   0.10556   0.15608   1.00000  Uiso   1.00
C011   C     0.55193   0.21998   0.15681   1.00000  Uiso   1.00
C012   C     0.45005   0.27512   0.15609   1.00000  Uiso   1.00
C013   C     0.65062   0.04649   0.15553   1.00000  Uiso   1.00
C014   C     0.75060   0.10181   0.15491   1.00000  Uiso   1.00
C015   C     0.75163   0.21452   0.15478   1.00000  Uiso   1.00
C016   C     0.65381   0.27507   0.15638   1.00000  Uiso   1.00
C017   C     0.85074   0.04563   0.15445   1.00000  Uiso   1.00
C018   C     0.95160   0.10006   0.15417   1.00000  Uiso   1.00
C019   C     0.95219   0.21138   0.15363   1.00000  Uiso   1.00
C020   C     0.85289   0.26715   0.15376   1.00000  Uiso   1.00
C021   C     0.05191   0.37808   0.15171   1.00000  Uiso   1.00
C022   C     0.15014   0.43406   0.15106   1.00000  Uiso   1.00
C023   C     0.15014   0.54523   0.15075   1.00000  Uiso   1.00
C024   C     0.05191   0.60123   0.15111   1.00000  Uiso   1.00
C025   C     0.24912   0.37838   0.15194   1.00000  Uiso   1.00
C026   C     0.34686   0.43345   0.15312   1.00000  Uiso   1.00
C027   C     0.34685   0.54588   0.15269   1.00000  Uiso   1.00
C028   C     0.24911   0.60093   0.15129   1.00000  Uiso   1.00
C029   C     0.75687   0.43344   0.15440   1.00000  Uiso   1.00
C030   C     0.75689   0.54590   0.15398   1.00000  Uiso   1.00
C031   C     0.85470   0.37839   0.15298   1.00000  Uiso   1.00
C032   C     0.95367   0.43406   0.15175   1.00000  Uiso   1.00
C033   C     0.95367   0.54524   0.15144   1.00000  Uiso   1.00
C034   C     0.85472   0.60092   0.15234   1.00000  Uiso   1.00
C035   C     0.05194   0.71286   0.15194   1.00000  Uiso   1.00
C036   C     0.15170   0.76795   0.15246   1.00000  Uiso   1.00
C037   C     0.05196   0.93405   0.15379   1.00000  Uiso   1.00
C038   C     0.25098   0.71218   0.15225   1.00000  Uiso   1.00
C039   C     0.35224   0.76480   0.15349   1.00000  Uiso   1.00
C040   C     0.35331   0.87752   0.15416   1.00000  Uiso   1.00
C041   C     0.25318   0.93369   0.15399   1.00000  Uiso   1.00
C042   C     0.45003   0.70424   0.15512   1.00000  Uiso   1.00
C043   C     0.55193   0.75936   0.15590   1.00000  Uiso   1.00
C044   C     0.55195   0.87377   0.15555   1.00000  Uiso   1.00
C045   C     0.45328   0.93284   0.15515   1.00000  Uiso   1.00
C046   C     0.65383   0.70430   0.15541   1.00000  Uiso   1.00
C047   C     0.75165   0.76482   0.15388   1.00000  Uiso   1.00
C048   C     0.75060   0.87753   0.15437   1.00000  Uiso   1.00
C049   C     0.65062   0.93284   0.15525   1.00000  Uiso   1.00
C050   C     0.85290   0.71217   0.15281   1.00000  Uiso   1.00
C051   C     0.95219   0.76795   0.15270   1.00000  Uiso   1.00
C052   C     0.85074   0.93370   0.15416   1.00000  Uiso   1.00
C053   C     0.15231   0.87926   0.15346   1.00000  Uiso   1.00
C054   C     0.95160   0.87925   0.15358   1.00000  Uiso   1.00
N001   N     0.44471   0.38411   0.15643   1.00000  Uiso   1.00
N002   N     0.44467   0.59529   0.15554   1.00000  Uiso   1.00
N003   N     0.65902   0.38401   0.15691   1.00000  Uiso   1.00
N004   N     0.65907   0.59539   0.15599   1.00000  Uiso   1.00
N005   N     0.55542   0.49311   0.25927   1.00000  Uiso   1.00
Fe001  Fe    0.55161   0.48992   0.16875   1.00000  Uiso   1.00
O001   O     0.63365   0.49459   0.29546   1.00000  Uiso   1.00
O002   O     0.45322   0.49545   0.29153   1.00000  Uiso   1.00
H001   H     0.46953   0.49841   0.34003   1.00000  Uiso   1.00
loop_
_geom_bond_atom_site_label_1
_geom_bond_atom_site_label_2
_geom_bond_distance
_geom_bond_site_symmetry_2
_ccdc_geom_bond_type
C001   C002    1.433   .     D
C001   C018    1.433   1_455 S
C001   C037    1.417   1_545 S
C002   C003    1.418   .     S
C002   C005    1.437   .     S
C003   C004    1.429   .     D
C003   C008    1.428   .     S
C004   C019    1.429   1_455 S
C004   C021    1.422   .     S
C005   C006    1.440   .     S
C005   C041    1.426   1_545 D
C006   C007    1.436   .     S
C006   C009    1.433   .     D
C007   C008    1.430   .     S
C007   C012    1.444   .     D
C008   C025    1.417   .     D
C009   C010    1.443   .     S
C009   C045    1.448   1_545 S
C010   C011    1.458   .     D
C010   C013    1.443   .     S
C011   C012    1.452   .     S
C011   C016    1.452   .     S
C012   N001    1.390   .     S
C013   C014    1.433   .     D
C013   C049    1.448   1_545 S
C014   C015    1.436   .     S
C014   C017    1.440   .     S
C015   C016    1.444   .     S
C015   C020    1.430   .     D
C016   N003    1.389   .     D
C017   C018    1.437   .     S
C017   C052    1.426   1_545 D
C018   C001    1.433   1_655 S
C018   C019    1.418   .     D
C019   C004    1.429   1_655 S
C019   C020    1.428   .     S
C020   C031    1.417   .     S
C021   C022    1.418   .     D
C021   C032    1.418   1_455 S
C022   C023    1.416   .     S
C022   C025    1.424   .     S
C023   C024    1.418   .     D
C023   C028    1.424   .     S
C024   C033    1.418   1_455 S
C024   C035    1.422   .     S
C025   C026    1.407   .     S
C026   C027    1.432   .     S
C026   N001    1.374   .     D
C027   C028    1.407   .     S
C027   N002    1.374   .     D
C028   C038    1.417   .     D
C029   C030    1.433   .     S
C029   C031    1.408   .     D
C029   N003    1.374   .     S
C030   C034    1.408   .     S
C030   N004    1.374   .     D
C031   C032    1.424   .     S
C032   C021    1.418   1_655 S
C032   C033    1.416   .     D
C033   C024    1.418   1_655 S
C033   C034    1.424   .     S
C034   C050    1.417   .     D
C035   C036    1.429   .     S
C035   C051    1.429   1_455 D
C036   C038    1.428   .     S
C036   C053    1.418   .     D
C037   C001    1.417   1_565 S
C037   C053    1.433   .     S
C037   C054    1.433   1_455 D
C038   C039    1.430   .     S
C039   C040    1.436   .     S
C039   C042    1.444   .     D
C040   C041    1.440   .     S
C040   C045    1.433   .     D
C041   C005    1.426   1_565 D
C041   C053    1.437   .     S
C042   C043    1.452   .     S
C042   N002    1.390   .     S
C043   C044    1.457   .     S
C043   C046    1.452   .     D
C044   C045    1.443   .     S
C044   C049    1.443   .     D
C045   C009    1.448   1_565 S
C046   C047    1.444   .     S
C046   N004    1.389   .     S
C047   C048    1.436   .     D
C047   C050    1.430   .     S
C048   C049    1.433   .     S
C048   C052    1.440   .     S
C049   C013    1.448   1_565 S
C050   C051    1.428   .     S
C051   C035    1.429   1_655 D
C051   C054    1.418   .     S
C052   C017    1.426   1_565 D
C052   C054    1.437   .     S
C054   C037    1.433   1_655 D
N001   Fe001   1.912   .     S
N002   Fe001   1.911   .     S
N003   Fe001   1.916   .     S
N004   Fe001   1.915   .     S
N005   Fe001   1.811   .     S
N005   O001    1.215   .     D
N005   O002    1.429   .     S
O002   H001    0.991   .     S
