data_e-0.6-opt
_audit_creation_date              2024-12-22
_audit_creation_method            'Materials Studio'
_symmetry_space_group_name_H-M    'P1'
_symmetry_Int_Tables_number       1
_symmetry_cell_setting            triclinic
loop_
_symmetry_equiv_pos_as_xyz
  x,y,z
_cell_length_a                    12.4752
_cell_length_b                    12.7382
_cell_length_c                    19.9906
_cell_angle_alpha                 90.0000
_cell_angle_beta                  90.0000
_cell_angle_gamma                 90.0000
loop_
_atom_site_label
_atom_site_type_symbol
_atom_site_fract_x
_atom_site_fract_y
_atom_site_fract_z
_atom_site_U_iso_or_equiv
_atom_site_adp_type
_atom_site_occupancy
C001   C     0.05197   0.04526   0.15414   1.00000  Uiso   1.00
C002   C     0.15241   0.10005   0.15411   1.00000  Uiso   1.00
C003   C     0.15181   0.21142   0.15348   1.00000  Uiso   1.00
C004   C     0.05196   0.26649   0.15298   1.00000  Uiso   1.00
C005   C     0.25325   0.04569   0.15434   1.00000  Uiso   1.00
C006   C     0.35335   0.10189   0.15475   1.00000  Uiso   1.00
C007   C     0.35234   0.21461   0.15439   1.00000  Uiso   1.00
C008   C     0.25099   0.26716   0.15322   1.00000  Uiso   1.00
C009   C     0.45345   0.04653   0.15547   1.00000  Uiso   1.00
C010   C     0.55196   0.10545   0.15612   1.00000  Uiso   1.00
C011   C     0.55194   0.22020   0.15680   1.00000  Uiso   1.00
C012   C     0.45022   0.27522   0.15601   1.00000  Uiso   1.00
C013   C     0.65047   0.04653   0.15556   1.00000  Uiso   1.00
C014   C     0.75057   0.10189   0.15495   1.00000  Uiso   1.00
C015   C     0.75158   0.21460   0.15477   1.00000  Uiso   1.00
C016   C     0.65367   0.27518   0.15631   1.00000  Uiso   1.00
C017   C     0.85068   0.04569   0.15450   1.00000  Uiso   1.00
C018   C     0.95152   0.10005   0.15422   1.00000  Uiso   1.00
C019   C     0.95212   0.21142   0.15370   1.00000  Uiso   1.00
C020   C     0.85292   0.26716   0.15377   1.00000  Uiso   1.00
C021   C     0.05195   0.37800   0.15187   1.00000  Uiso   1.00
C022   C     0.15023   0.43399   0.15117   1.00000  Uiso   1.00
C023   C     0.15023   0.54529   0.15085   1.00000  Uiso   1.00
C024   C     0.05195   0.60129   0.15127   1.00000  Uiso   1.00
C025   C     0.24909   0.37846   0.15189   1.00000  Uiso   1.00
C026   C     0.34687   0.43358   0.15279   1.00000  Uiso   1.00
C027   C     0.34686   0.54573   0.15236   1.00000  Uiso   1.00
C028   C     0.24908   0.60083   0.15123   1.00000  Uiso   1.00
C029   C     0.75696   0.43358   0.15411   1.00000  Uiso   1.00
C030   C     0.75698   0.54573   0.15369   1.00000  Uiso   1.00
C031   C     0.85480   0.37847   0.15293   1.00000  Uiso   1.00
C032   C     0.95364   0.43400   0.15185   1.00000  Uiso   1.00
C033   C     0.95365   0.54529   0.15153   1.00000  Uiso   1.00
C034   C     0.85481   0.60083   0.15228   1.00000  Uiso   1.00
C035   C     0.05196   0.71281   0.15204   1.00000  Uiso   1.00
C036   C     0.15180   0.76789   0.15254   1.00000  Uiso   1.00
C037   C     0.05197   0.93404   0.15382   1.00000  Uiso   1.00
C038   C     0.25099   0.71215   0.15227   1.00000  Uiso   1.00
C039   C     0.35232   0.76472   0.15348   1.00000  Uiso   1.00
C040   C     0.35335   0.87743   0.15419   1.00000  Uiso   1.00
C041   C     0.25325   0.93362   0.15404   1.00000  Uiso   1.00
C042   C     0.45020   0.70412   0.15503   1.00000  Uiso   1.00
C043   C     0.55194   0.75912   0.15588   1.00000  Uiso   1.00
C044   C     0.55196   0.87387   0.15557   1.00000  Uiso   1.00
C045   C     0.45345   0.93278   0.15519   1.00000  Uiso   1.00
C046   C     0.65368   0.70417   0.15532   1.00000  Uiso   1.00
C047   C     0.75159   0.76473   0.15386   1.00000  Uiso   1.00
C048   C     0.75058   0.87744   0.15440   1.00000  Uiso   1.00
C049   C     0.65047   0.93279   0.15528   1.00000  Uiso   1.00
C050   C     0.85292   0.71215   0.15281   1.00000  Uiso   1.00
C051   C     0.95212   0.76788   0.15276   1.00000  Uiso   1.00
C052   C     0.85069   0.93362   0.15420   1.00000  Uiso   1.00
C053   C     0.15241   0.87925   0.15351   1.00000  Uiso   1.00
C054   C     0.95152   0.87925   0.15362   1.00000  Uiso   1.00
N001   N     0.44488   0.38432   0.15612   1.00000  Uiso   1.00
N002   N     0.44485   0.59506   0.15523   1.00000  Uiso   1.00
N003   N     0.65892   0.38425   0.15662   1.00000  Uiso   1.00
N004   N     0.65897   0.59513   0.15569   1.00000  Uiso   1.00
N005   N     0.55568   0.49304   0.25892   1.00000  Uiso   1.00
Fe001  Fe    0.55170   0.48992   0.16933   1.00000  Uiso   1.00
O001   O     0.63292   0.49481   0.29637   1.00000  Uiso   1.00
O002   O     0.45188   0.49532   0.29164   1.00000  Uiso   1.00
H001   H     0.47005   0.49884   0.33971   1.00000  Uiso   1.00
loop_
_geom_bond_atom_site_label_1
_geom_bond_atom_site_label_2
_geom_bond_distance
_geom_bond_site_symmetry_2
_ccdc_geom_bond_type
C001   C002    1.434   .     D
C001   C018    1.434   1_455 S
C001   C037    1.417   1_545 S
C002   C003    1.419   .     S
C002   C005    1.436   .     S
C003   C004    1.430   .     D
C003   C008    1.427   .     S
C004   C019    1.430   1_455 S
C004   C021    1.421   .     S
C005   C006    1.439   .     S
C005   C041    1.428   1_545 D
C006   C007    1.436   .     S
C006   C009    1.434   .     D
C007   C008    1.431   .     S
C007   C012    1.445   .     D
C008   C025    1.418   .     D
C009   C010    1.440   .     S
C009   C045    1.449   1_545 S
C010   C011    1.462   .     D
C010   C013    1.440   .     S
C011   C012    1.450   .     S
C011   C016    1.449   .     S
C012   N001    1.391   .     S
C013   C014    1.434   .     D
C013   C049    1.449   1_545 S
C014   C015    1.436   .     S
C014   C017    1.440   .     S
C015   C016    1.445   .     S
C015   C020    1.431   .     D
C016   N003    1.391   .     D
C017   C018    1.436   .     S
C017   C052    1.428   1_545 D
C018   C001    1.434   1_655 S
C018   C019    1.419   .     D
C019   C004    1.430   1_655 S
C019   C020    1.427   .     S
C020   C031    1.418   .     S
C021   C022    1.419   .     D
C021   C032    1.419   1_455 S
C022   C023    1.418   .     S
C022   C025    1.422   .     S
C023   C024    1.419   .     D
C023   C028    1.422   .     S
C024   C033    1.419   1_455 S
C024   C035    1.421   .     S
C025   C026    1.408   .     S
C026   C027    1.429   .     S
C026   N001    1.376   .     D
C027   C028    1.408   .     S
C027   N002    1.376   .     D
C028   C038    1.418   .     D
C029   C030    1.429   .     S
C029   C031    1.408   .     D
C029   N003    1.376   .     S
C030   C034    1.408   .     S
C030   N004    1.376   .     D
C031   C032    1.422   .     S
C032   C021    1.419   1_655 S
C032   C033    1.418   .     D
C033   C024    1.419   1_655 S
C033   C034    1.422   .     S
C034   C050    1.418   .     D
C035   C036    1.430   .     S
C035   C051    1.430   1_455 D
C036   C038    1.427   .     S
C036   C053    1.419   .     D
C037   C001    1.417   1_565 S
C037   C053    1.434   .     S
C037   C054    1.434   1_455 D
C038   C039    1.431   .     S
C039   C040    1.436   .     S
C039   C042    1.445   .     D
C040   C041    1.439   .     S
C040   C045    1.434   .     D
C041   C005    1.428   1_565 D
C041   C053    1.436   .     S
C042   C043    1.450   .     S
C042   N002    1.391   .     S
C043   C044    1.462   .     S
C043   C046    1.449   .     D
C044   C045    1.440   .     S
C044   C049    1.440   .     D
C045   C009    1.449   1_565 S
C046   C047    1.445   .     S
C046   N004    1.391   .     S
C047   C048    1.436   .     D
C047   C050    1.431   .     S
C048   C049    1.434   .     S
C048   C052    1.439   .     S
C049   C013    1.449   1_565 S
C050   C051    1.427   .     S
C051   C035    1.430   1_655 D
C051   C054    1.419   .     S
C052   C017    1.428   1_565 D
C052   C054    1.436   .     S
C054   C037    1.434   1_655 D
N001   Fe001   1.912   .     S
N002   Fe001   1.911   .     S
N003   Fe001   1.915   .     S
N004   Fe001   1.913   .     S
N005   Fe001   1.792   .     S
N005   O001    1.220   .     D
N005   O002    1.451   .     S
O002   H001    0.988   .     S
