data_e-1.0-opt
_audit_creation_date              2024-12-22
_audit_creation_method            'Materials Studio'
_symmetry_space_group_name_H-M    'P1'
_symmetry_Int_Tables_number       1
_symmetry_cell_setting            triclinic
loop_
_symmetry_equiv_pos_as_xyz
  x,y,z
_cell_length_a                    8.3982
_cell_length_b                    8.3982
_cell_length_c                    20.0460
_cell_angle_alpha                 90.0000
_cell_angle_beta                  90.0000
_cell_angle_gamma                 90.0000
loop_
_atom_site_label
_atom_site_type_symbol
_atom_site_fract_x
_atom_site_fract_y
_atom_site_fract_z
_atom_site_U_iso_or_equiv
_atom_site_adp_type
_atom_site_occupancy
C001   C     0.49876   0.07223   0.13681   1.00000  Uiso   1.00
C002   C     0.35215   0.15391   0.13621   1.00000  Uiso   1.00
C003   C     0.64535   0.15395   0.13652   1.00000  Uiso   1.00
C004   C     0.79422   0.90272   0.13621   1.00000  Uiso   1.00
C005   C     0.79427   0.06940   0.13598   1.00000  Uiso   1.00
C006   C     0.91534   0.19082   0.13578   1.00000  Uiso   1.00
C007   C     0.83094   0.33948   0.13659   1.00000  Uiso   1.00
C008   C     0.20321   0.06941   0.13569   1.00000  Uiso   1.00
C009   C     0.08213   0.19082   0.13563   1.00000  Uiso   1.00
C010   C     0.16652   0.33946   0.13632   1.00000  Uiso   1.00
C011   C     0.08504   0.48620   0.13683   1.00000  Uiso   1.00
C012   C     0.16667   0.63282   0.13647   1.00000  Uiso   1.00
C013   C     0.35225   0.81816   0.13654   1.00000  Uiso   1.00
C014   C     0.20323   0.90275   0.13588   1.00000  Uiso   1.00
C015   C     0.08213   0.78145   0.13590   1.00000  Uiso   1.00
C016   C     0.64524   0.81811   0.13699   1.00000  Uiso   1.00
C017   C     0.83077   0.63279   0.13690   1.00000  Uiso   1.00
C018   C     0.91531   0.78142   0.13610   1.00000  Uiso   1.00
C019   C     0.49876   0.89984   0.13704   1.00000  Uiso   1.00
C020   C     0.91245   0.48619   0.13703   1.00000  Uiso   1.00
N001   N     0.66636   0.31813   0.13662   1.00000  Uiso   1.00
N002   N     0.33113   0.31809   0.13628   1.00000  Uiso   1.00
N003   N     0.33121   0.65411   0.13637   1.00000  Uiso   1.00
N004   N     0.66619   0.65399   0.13712   1.00000  Uiso   1.00
N005   N     0.49481   0.48153   0.23463   1.00000  Uiso   1.00
Fe001  Fe    0.49844   0.48649   0.14570   1.00000  Uiso   1.00
O001   O     0.49727   0.59324   0.27379   1.00000  Uiso   1.00
H001   H     0.48908   0.36828   0.25680   1.00000  Uiso   1.00
loop_
_geom_bond_atom_site_label_1
_geom_bond_atom_site_label_2
_geom_bond_distance
_geom_bond_site_symmetry_2
_ccdc_geom_bond_type
C001   C002    1.410   .     D
C001   C003    1.409   .     S
C001   C019    1.448   1_545 S
C002   C008    1.438   .     S
C002   N002    1.390   .     S
C003   C005    1.438   .     D
C003   N001    1.390   .     S
C004   C005    1.400   1_565 S
C004   C016    1.439   .     D
C004   C018    1.439   .     S
C005   C004    1.400   1_545 S
C005   C006    1.440   .     S
C006   C007    1.436   .     S
C006   C009    1.401   1_655 D
C007   C020    1.410   .     S
C007   N001    1.394   .     D
C008   C009    1.440   .     S
C008   C014    1.400   1_545 D
C009   C006    1.401   1_455 D
C009   C010    1.436   .     S
C010   C011    1.410   .     S
C010   N002    1.394   .     D
C011   C012    1.409   .     S
C011   C020    1.449   1_455 D
C012   C015    1.436   .     S
C012   N003    1.393   .     D
C013   C014    1.439   .     S
C013   C019    1.409   .     D
C013   N003    1.389   .     S
C014   C008    1.400   1_565 D
C014   C015    1.439   .     S
C015   C018    1.401   1_455 D
C016   C019    1.409   .     S
C016   N004    1.389   .     S
C017   C018    1.436   .     S
C017   C020    1.409   .     S
C017   N004    1.394   .     D
C018   C015    1.401   1_655 D
C019   C001    1.448   1_565 S
C020   C011    1.449   1_655 D
N001   Fe001   2.005   .     S
N002   Fe001   2.003   .     S
N003   Fe001   1.997   .     S
N004   Fe001   1.998   .     S
N005   Fe001   1.783   .     S
N005   O001    1.223   .     D
N005   H001    1.051   .     S
