data_e+1.0-opt
_audit_creation_date              2024-12-22
_audit_creation_method            'Materials Studio'
_symmetry_space_group_name_H-M    'P1'
_symmetry_Int_Tables_number       1
_symmetry_cell_setting            triclinic
loop_
_symmetry_equiv_pos_as_xyz
  x,y,z
_cell_length_a                    8.3982
_cell_length_b                    8.3982
_cell_length_c                    20.0460
_cell_angle_alpha                 90.0000
_cell_angle_beta                  90.0000
_cell_angle_gamma                 90.0000
loop_
_atom_site_label
_atom_site_type_symbol
_atom_site_fract_x
_atom_site_fract_y
_atom_site_fract_z
_atom_site_U_iso_or_equiv
_atom_site_adp_type
_atom_site_occupancy
C001   C     0.49887   0.07269   0.13682   1.00000  Uiso   1.00
C002   C     0.35227   0.15437   0.13615   1.00000  Uiso   1.00
C003   C     0.64541   0.15443   0.13650   1.00000  Uiso   1.00
C004   C     0.79441   0.90324   0.13652   1.00000  Uiso   1.00
C005   C     0.79443   0.06969   0.13628   1.00000  Uiso   1.00
C006   C     0.91555   0.19115   0.13610   1.00000  Uiso   1.00
C007   C     0.83106   0.33991   0.13667   1.00000  Uiso   1.00
C008   C     0.20324   0.06967   0.13594   1.00000  Uiso   1.00
C009   C     0.08211   0.19113   0.13592   1.00000  Uiso   1.00
C010   C     0.16659   0.33986   0.13634   1.00000  Uiso   1.00
C011   C     0.08514   0.48660   0.13699   1.00000  Uiso   1.00
C012   C     0.16684   0.63317   0.13663   1.00000  Uiso   1.00
C013   C     0.35243   0.81871   0.13655   1.00000  Uiso   1.00
C014   C     0.20328   0.90325   0.13612   1.00000  Uiso   1.00
C015   C     0.08217   0.78180   0.13623   1.00000  Uiso   1.00
C016   C     0.64530   0.81866   0.13710   1.00000  Uiso   1.00
C017   C     0.83084   0.63316   0.13717   1.00000  Uiso   1.00
C018   C     0.91551   0.78179   0.13648   1.00000  Uiso   1.00
C019   C     0.49887   0.90041   0.13708   1.00000  Uiso   1.00
C020   C     0.91257   0.48660   0.13724   1.00000  Uiso   1.00
N001   N     0.66675   0.31830   0.13648   1.00000  Uiso   1.00
N002   N     0.33091   0.31823   0.13608   1.00000  Uiso   1.00
N003   N     0.33122   0.65496   0.13647   1.00000  Uiso   1.00
N004   N     0.66642   0.65486   0.13739   1.00000  Uiso   1.00
N005   N     0.49433   0.47975   0.23299   1.00000  Uiso   1.00
Fe001  Fe    0.49848   0.48787   0.14555   1.00000  Uiso   1.00
O001   O     0.49617   0.58710   0.27596   1.00000  Uiso   1.00
H001   H     0.48807   0.36443   0.25268   1.00000  Uiso   1.00
loop_
_geom_bond_atom_site_label_1
_geom_bond_atom_site_label_2
_geom_bond_distance
_geom_bond_site_symmetry_2
_ccdc_geom_bond_type
C001   C002    1.409   .     D
C001   C003    1.409   .     S
C001   C019    1.447   1_545 S
C002   C008    1.440   .     S
C002   N002    1.388   .     S
C003   C005    1.440   .     D
C003   N001    1.388   .     S
C004   C005    1.398   1_565 S
C004   C016    1.440   .     D
C004   C018    1.440   .     S
C005   C004    1.398   1_545 S
C005   C006    1.441   .     S
C006   C007    1.437   .     S
C006   C009    1.399   1_655 D
C007   C020    1.409   .     S
C007   N001    1.392   .     D
C008   C009    1.441   .     S
C008   C014    1.398   1_545 D
C009   C006    1.399   1_455 D
C009   C010    1.437   .     S
C010   C011    1.410   .     S
C010   N002    1.392   .     D
C011   C012    1.409   .     S
C011   C020    1.449   1_455 D
C012   C015    1.437   .     S
C012   N003    1.393   .     D
C013   C014    1.440   .     S
C013   C019    1.408   .     D
C013   N003    1.387   .     S
C014   C008    1.398   1_565 D
C014   C015    1.440   .     S
C015   C018    1.400   1_455 D
C016   C019    1.408   .     S
C016   N004    1.387   .     S
C017   C018    1.437   .     S
C017   C020    1.409   .     S
C017   N004    1.393   .     D
C018   C015    1.400   1_655 D
C019   C001    1.447   1_565 S
C020   C011    1.449   1_655 D
N001   Fe001   2.014   .     S
N002   Fe001   2.012   .     S
N003   Fe001   1.994   .     S
N004   Fe001   1.996   .     S
N005   Fe001   1.755   .     S
N005   O001    1.247   .     D
N005   H001    1.047   .     S
