data_e+0.6-opt
_audit_creation_date              2024-12-22
_audit_creation_method            'Materials Studio'
_symmetry_space_group_name_H-M    'P1'
_symmetry_Int_Tables_number       1
_symmetry_cell_setting            triclinic
loop_
_symmetry_equiv_pos_as_xyz
  x,y,z
_cell_length_a                    8.3982
_cell_length_b                    8.3982
_cell_length_c                    20.0460
_cell_angle_alpha                 90.0000
_cell_angle_beta                  90.0000
_cell_angle_gamma                 90.0000
loop_
_atom_site_label
_atom_site_type_symbol
_atom_site_fract_x
_atom_site_fract_y
_atom_site_fract_z
_atom_site_U_iso_or_equiv
_atom_site_adp_type
_atom_site_occupancy
C001   C     0.49886   0.07277   0.13681   1.00000  Uiso   1.00
C002   C     0.35221   0.15440   0.13613   1.00000  Uiso   1.00
C003   C     0.64547   0.15445   0.13648   1.00000  Uiso   1.00
C004   C     0.79434   0.90303   0.13653   1.00000  Uiso   1.00
C005   C     0.79437   0.06993   0.13631   1.00000  Uiso   1.00
C006   C     0.91535   0.19114   0.13613   1.00000  Uiso   1.00
C007   C     0.83101   0.33990   0.13664   1.00000  Uiso   1.00
C008   C     0.20330   0.06991   0.13598   1.00000  Uiso   1.00
C009   C     0.08230   0.19112   0.13595   1.00000  Uiso   1.00
C010   C     0.16664   0.33984   0.13633   1.00000  Uiso   1.00
C011   C     0.08519   0.48659   0.13699   1.00000  Uiso   1.00
C012   C     0.16688   0.63316   0.13661   1.00000  Uiso   1.00
C013   C     0.35236   0.81875   0.13652   1.00000  Uiso   1.00
C014   C     0.20336   0.90303   0.13614   1.00000  Uiso   1.00
C015   C     0.08237   0.78179   0.13623   1.00000  Uiso   1.00
C016   C     0.64538   0.81870   0.13708   1.00000  Uiso   1.00
C017   C     0.83079   0.63315   0.13715   1.00000  Uiso   1.00
C018   C     0.91532   0.78179   0.13648   1.00000  Uiso   1.00
C019   C     0.49887   0.90038   0.13706   1.00000  Uiso   1.00
C020   C     0.91252   0.48660   0.13723   1.00000  Uiso   1.00
N001   N     0.66665   0.31854   0.13631   1.00000  Uiso   1.00
N002   N     0.33099   0.31845   0.13592   1.00000  Uiso   1.00
N003   N     0.33133   0.65475   0.13634   1.00000  Uiso   1.00
N004   N     0.66632   0.65467   0.13728   1.00000  Uiso   1.00
N005   N     0.49437   0.47974   0.23306   1.00000  Uiso   1.00
Fe001  Fe    0.49847   0.48803   0.14580   1.00000  Uiso   1.00
O001   O     0.49614   0.58691   0.27638   1.00000  Uiso   1.00
H001   H     0.48808   0.36427   0.25254   1.00000  Uiso   1.00
loop_
_geom_bond_atom_site_label_1
_geom_bond_atom_site_label_2
_geom_bond_distance
_geom_bond_site_symmetry_2
_ccdc_geom_bond_type
C001   C002    1.410   .     D
C001   C003    1.409   .     S
C001   C019    1.448   1_545 S
C002   C008    1.438   .     S
C002   N002    1.389   .     S
C003   C005    1.438   .     D
C003   N001    1.389   .     S
C004   C005    1.402   1_565 S
C004   C016    1.438   .     D
C004   C018    1.438   .     S
C005   C004    1.402   1_545 S
C005   C006    1.438   .     S
C006   C007    1.436   .     S
C006   C009    1.402   1_655 D
C007   C020    1.409   .     S
C007   N001    1.392   .     D
C008   C009    1.438   .     S
C008   C014    1.401   1_545 D
C009   C006    1.402   1_455 D
C009   C010    1.436   .     S
C010   C011    1.410   .     S
C010   N002    1.392   .     D
C011   C012    1.409   .     S
C011   C020    1.450   1_455 D
C012   C015    1.436   .     S
C012   N003    1.393   .     D
C013   C014    1.438   .     S
C013   C019    1.409   .     D
C013   N003    1.388   .     S
C014   C008    1.401   1_565 D
C014   C015    1.438   .     S
C015   C018    1.403   1_455 D
C016   C019    1.409   .     S
C016   N004    1.389   .     S
C017   C018    1.436   .     S
C017   C020    1.409   .     S
C017   N004    1.393   .     D
C018   C015    1.403   1_655 D
C019   C001    1.448   1_565 S
C020   C011    1.450   1_655 D
N001   Fe001   2.014   .     S
N002   Fe001   2.011   .     S
N003   Fe001   1.992   .     S
N004   Fe001   1.994   .     S
N005   Fe001   1.751   .     S
N005   O001    1.251   .     D
N005   H001    1.047   .     S
