data_e-0.8-opt
_audit_creation_date              2024-12-22
_audit_creation_method            'Materials Studio'
_symmetry_space_group_name_H-M    'P1'
_symmetry_Int_Tables_number       1
_symmetry_cell_setting            triclinic
loop_
_symmetry_equiv_pos_as_xyz
  x,y,z
_cell_length_a                    8.3982
_cell_length_b                    8.3982
_cell_length_c                    20.0460
_cell_angle_alpha                 90.0000
_cell_angle_beta                  90.0000
_cell_angle_gamma                 90.0000
loop_
_atom_site_label
_atom_site_type_symbol
_atom_site_fract_x
_atom_site_fract_y
_atom_site_fract_z
_atom_site_U_iso_or_equiv
_atom_site_adp_type
_atom_site_occupancy
C001   C     0.49882   0.07251   0.13680   1.00000  Uiso   1.00
C002   C     0.35217   0.15416   0.13617   1.00000  Uiso   1.00
C003   C     0.64543   0.15421   0.13651   1.00000  Uiso   1.00
C004   C     0.79423   0.90290   0.13639   1.00000  Uiso   1.00
C005   C     0.79429   0.06971   0.13614   1.00000  Uiso   1.00
C006   C     0.91534   0.19106   0.13594   1.00000  Uiso   1.00
C007   C     0.83100   0.33972   0.13661   1.00000  Uiso   1.00
C008   C     0.20330   0.06971   0.13582   1.00000  Uiso   1.00
C009   C     0.08224   0.19106   0.13578   1.00000  Uiso   1.00
C010   C     0.16657   0.33970   0.13631   1.00000  Uiso   1.00
C011   C     0.08510   0.48644   0.13690   1.00000  Uiso   1.00
C012   C     0.16675   0.63306   0.13655   1.00000  Uiso   1.00
C013   C     0.35229   0.81845   0.13657   1.00000  Uiso   1.00
C014   C     0.20333   0.90292   0.13602   1.00000  Uiso   1.00
C015   C     0.08225   0.78165   0.13608   1.00000  Uiso   1.00
C016   C     0.64531   0.81839   0.13708   1.00000  Uiso   1.00
C017   C     0.83080   0.63302   0.13703   1.00000  Uiso   1.00
C018   C     0.91530   0.78163   0.13630   1.00000  Uiso   1.00
C019   C     0.49881   0.90011   0.13708   1.00000  Uiso   1.00
C020   C     0.91249   0.48644   0.13712   1.00000  Uiso   1.00
N001   N     0.66644   0.31843   0.13644   1.00000  Uiso   1.00
N002   N     0.33115   0.31837   0.13606   1.00000  Uiso   1.00
N003   N     0.33131   0.65434   0.13633   1.00000  Uiso   1.00
N004   N     0.66620   0.65422   0.13716   1.00000  Uiso   1.00
N005   N     0.49450   0.48016   0.23409   1.00000  Uiso   1.00
Fe001  Fe    0.49847   0.48689   0.14557   1.00000  Uiso   1.00
O001   O     0.49678   0.59045   0.27416   1.00000  Uiso   1.00
H001   H     0.48857   0.36609   0.25540   1.00000  Uiso   1.00
loop_
_geom_bond_atom_site_label_1
_geom_bond_atom_site_label_2
_geom_bond_distance
_geom_bond_site_symmetry_2
_ccdc_geom_bond_type
C001   C002    1.410   .     D
C001   C003    1.410   .     S
C001   C019    1.448   1_545 S
C002   C008    1.437   .     S
C002   N002    1.390   .     S
C003   C005    1.438   .     D
C003   N001    1.390   .     S
C004   C005    1.401   1_565 S
C004   C016    1.438   .     D
C004   C018    1.439   .     S
C005   C004    1.401   1_545 S
C005   C006    1.439   .     S
C006   C007    1.435   .     S
C006   C009    1.402   1_655 D
C007   C020    1.410   .     S
C007   N001    1.393   .     D
C008   C009    1.440   .     S
C008   C014    1.401   1_545 D
C009   C006    1.402   1_455 D
C009   C010    1.435   .     S
C010   C011    1.410   .     S
C010   N002    1.394   .     D
C011   C012    1.409   .     S
C011   C020    1.450   1_455 D
C012   C015    1.436   .     S
C012   N003    1.393   .     D
C013   C014    1.438   .     S
C013   C019    1.409   .     D
C013   N003    1.389   .     S
C014   C008    1.401   1_565 D
C014   C015    1.439   .     S
C015   C018    1.402   1_455 D
C016   C019    1.409   .     S
C016   N004    1.390   .     S
C017   C018    1.436   .     S
C017   C020    1.409   .     S
C017   N004    1.394   .     D
C018   C015    1.402   1_655 D
C019   C001    1.448   1_565 S
C020   C011    1.450   1_655 D
N001   Fe001   2.006   .     S
N002   Fe001   2.003   .     S
N003   Fe001   1.996   .     S
N004   Fe001   1.997   .     S
N005   Fe001   1.776   .     S
N005   O001    1.226   .     D
N005   H001    1.050   .     S
