data_e+0.8-opt
_audit_creation_date              2024-12-22
_audit_creation_method            'Materials Studio'
_symmetry_space_group_name_H-M    'P1'
_symmetry_Int_Tables_number       1
_symmetry_cell_setting            triclinic
loop_
_symmetry_equiv_pos_as_xyz
  x,y,z
_cell_length_a                    8.3982
_cell_length_b                    8.3982
_cell_length_c                    20.0460
_cell_angle_alpha                 90.0000
_cell_angle_beta                  90.0000
_cell_angle_gamma                 90.0000
loop_
_atom_site_label
_atom_site_type_symbol
_atom_site_fract_x
_atom_site_fract_y
_atom_site_fract_z
_atom_site_U_iso_or_equiv
_atom_site_adp_type
_atom_site_occupancy
C001   C     0.49887   0.07272   0.13682   1.00000  Uiso   1.00
C002   C     0.35225   0.15438   0.13615   1.00000  Uiso   1.00
C003   C     0.64543   0.15444   0.13649   1.00000  Uiso   1.00
C004   C     0.79437   0.90315   0.13653   1.00000  Uiso   1.00
C005   C     0.79440   0.06979   0.13629   1.00000  Uiso   1.00
C006   C     0.91547   0.19115   0.13611   1.00000  Uiso   1.00
C007   C     0.83103   0.33991   0.13666   1.00000  Uiso   1.00
C008   C     0.20328   0.06977   0.13596   1.00000  Uiso   1.00
C009   C     0.08219   0.19113   0.13593   1.00000  Uiso   1.00
C010   C     0.16662   0.33986   0.13634   1.00000  Uiso   1.00
C011   C     0.08516   0.48659   0.13699   1.00000  Uiso   1.00
C012   C     0.16686   0.63316   0.13662   1.00000  Uiso   1.00
C013   C     0.35241   0.81871   0.13654   1.00000  Uiso   1.00
C014   C     0.20332   0.90316   0.13613   1.00000  Uiso   1.00
C015   C     0.08225   0.78179   0.13623   1.00000  Uiso   1.00
C016   C     0.64533   0.81867   0.13710   1.00000  Uiso   1.00
C017   C     0.83081   0.63315   0.13716   1.00000  Uiso   1.00
C018   C     0.91544   0.78179   0.13648   1.00000  Uiso   1.00
C019   C     0.49887   0.90040   0.13708   1.00000  Uiso   1.00
C020   C     0.91255   0.48660   0.13723   1.00000  Uiso   1.00
N001   N     0.66670   0.31842   0.13641   1.00000  Uiso   1.00
N002   N     0.33096   0.31834   0.13602   1.00000  Uiso   1.00
N003   N     0.33128   0.65485   0.13642   1.00000  Uiso   1.00
N004   N     0.66636   0.65476   0.13734   1.00000  Uiso   1.00
N005   N     0.49434   0.47974   0.23302   1.00000  Uiso   1.00
Fe001  Fe    0.49848   0.48792   0.14563   1.00000  Uiso   1.00
O001   O     0.49616   0.58710   0.27607   1.00000  Uiso   1.00
H001   H     0.48807   0.36438   0.25266   1.00000  Uiso   1.00
loop_
_geom_bond_atom_site_label_1
_geom_bond_atom_site_label_2
_geom_bond_distance
_geom_bond_site_symmetry_2
_ccdc_geom_bond_type
C001   C002    1.409   .     D
C001   C003    1.409   .     S
C001   C019    1.447   1_545 S
C002   C008    1.439   .     S
C002   N002    1.388   .     S
C003   C005    1.439   .     D
C003   N001    1.389   .     S
C004   C005    1.399   1_565 S
C004   C016    1.439   .     D
C004   C018    1.440   .     S
C005   C004    1.399   1_545 S
C005   C006    1.440   .     S
C006   C007    1.437   .     S
C006   C009    1.400   1_655 D
C007   C020    1.409   .     S
C007   N001    1.392   .     D
C008   C009    1.440   .     S
C008   C014    1.399   1_545 D
C009   C006    1.400   1_455 D
C009   C010    1.436   .     S
C010   C011    1.409   .     S
C010   N002    1.392   .     D
C011   C012    1.409   .     S
C011   C020    1.450   1_455 D
C012   C015    1.436   .     S
C012   N003    1.393   .     D
C013   C014    1.439   .     S
C013   C019    1.408   .     D
C013   N003    1.388   .     S
C014   C008    1.399   1_565 D
C014   C015    1.440   .     S
C015   C018    1.401   1_455 D
C016   C019    1.409   .     S
C016   N004    1.388   .     S
C017   C018    1.436   .     S
C017   C020    1.409   .     S
C017   N004    1.393   .     D
C018   C015    1.401   1_655 D
C019   C001    1.447   1_565 S
C020   C011    1.450   1_655 D
N001   Fe001   2.014   .     S
N002   Fe001   2.011   .     S
N003   Fe001   1.993   .     S
N004   Fe001   1.995   .     S
N005   Fe001   1.754   .     S
N005   O001    1.248   .     D
N005   H001    1.047   .     S
