data_e-0.2-opt
_audit_creation_date              2024-12-22
_audit_creation_method            'Materials Studio'
_symmetry_space_group_name_H-M    'P1'
_symmetry_Int_Tables_number       1
_symmetry_cell_setting            triclinic
loop_
_symmetry_equiv_pos_as_xyz
  x,y,z
_cell_length_a                    8.3982
_cell_length_b                    8.3982
_cell_length_c                    20.0460
_cell_angle_alpha                 90.0000
_cell_angle_beta                  90.0000
_cell_angle_gamma                 90.0000
loop_
_atom_site_label
_atom_site_type_symbol
_atom_site_fract_x
_atom_site_fract_y
_atom_site_fract_z
_atom_site_U_iso_or_equiv
_atom_site_adp_type
_atom_site_occupancy
C001   C     0.49889   0.07279   0.13682   1.00000  Uiso   1.00
C002   C     0.35220   0.15437   0.13614   1.00000  Uiso   1.00
C003   C     0.64552   0.15443   0.13651   1.00000  Uiso   1.00
C004   C     0.79429   0.90300   0.13655   1.00000  Uiso   1.00
C005   C     0.79433   0.07001   0.13629   1.00000  Uiso   1.00
C006   C     0.91531   0.19122   0.13609   1.00000  Uiso   1.00
C007   C     0.83106   0.33990   0.13666   1.00000  Uiso   1.00
C008   C     0.20337   0.07000   0.13595   1.00000  Uiso   1.00
C009   C     0.08238   0.19121   0.13591   1.00000  Uiso   1.00
C010   C     0.16662   0.33985   0.13632   1.00000  Uiso   1.00
C011   C     0.08521   0.48662   0.13698   1.00000  Uiso   1.00
C012   C     0.16686   0.63323   0.13663   1.00000  Uiso   1.00
C013   C     0.35234   0.81873   0.13659   1.00000  Uiso   1.00
C014   C     0.20342   0.90300   0.13614   1.00000  Uiso   1.00
C015   C     0.08243   0.78180   0.13624   1.00000  Uiso   1.00
C016   C     0.64542   0.81868   0.13716   1.00000  Uiso   1.00
C017   C     0.83084   0.63321   0.13718   1.00000  Uiso   1.00
C018   C     0.91528   0.78179   0.13648   1.00000  Uiso   1.00
C019   C     0.49889   0.90035   0.13712   1.00000  Uiso   1.00
C020   C     0.91253   0.48662   0.13723   1.00000  Uiso   1.00
N001   N     0.66658   0.31865   0.13630   1.00000  Uiso   1.00
N002   N     0.33112   0.31857   0.13587   1.00000  Uiso   1.00
N003   N     0.33139   0.65462   0.13631   1.00000  Uiso   1.00
N004   N     0.66628   0.65451   0.13724   1.00000  Uiso   1.00
N005   N     0.49418   0.47943   0.23343   1.00000  Uiso   1.00
Fe001  Fe    0.49851   0.48762   0.14561   1.00000  Uiso   1.00
O001   O     0.49605   0.58740   0.27529   1.00000  Uiso   1.00
H001   H     0.48794   0.36420   0.25335   1.00000  Uiso   1.00
loop_
_geom_bond_atom_site_label_1
_geom_bond_atom_site_label_2
_geom_bond_distance
_geom_bond_site_symmetry_2
_ccdc_geom_bond_type
C001   C002    1.410   .     D
C001   C003    1.409   .     S
C001   C019    1.448   1_545 S
C002   C008    1.437   .     S
C002   N002    1.390   .     S
C003   C005    1.437   .     D
C003   N001    1.390   .     S
C004   C005    1.403   1_565 S
C004   C016    1.437   .     D
C004   C018    1.438   .     S
C005   C004    1.403   1_545 S
C005   C006    1.438   .     S
C006   C007    1.435   .     S
C006   C009    1.403   1_655 D
C007   C020    1.409   .     S
C007   N001    1.393   .     D
C008   C009    1.438   .     S
C008   C014    1.402   1_545 D
C009   C006    1.403   1_455 D
C009   C010    1.435   .     S
C010   C011    1.410   .     S
C010   N002    1.393   .     D
C011   C012    1.409   .     S
C011   C020    1.450   1_455 D
C012   C015    1.435   .     S
C012   N003    1.393   .     D
C013   C014    1.437   .     S
C013   C019    1.409   .     D
C013   N003    1.389   .     S
C014   C008    1.402   1_565 D
C014   C015    1.438   .     S
C015   C018    1.404   1_455 D
C016   C019    1.409   .     S
C016   N004    1.390   .     S
C017   C018    1.435   .     S
C017   C020    1.409   .     S
C017   N004    1.394   .     D
C018   C015    1.404   1_655 D
C019   C001    1.448   1_565 S
C020   C011    1.450   1_655 D
N001   Fe001   2.010   .     S
N002   Fe001   2.007   .     S
N003   Fe001   1.993   .     S
N004   Fe001   1.994   .     S
N005   Fe001   1.762   .     S
N005   O001    1.236   .     D
N005   H001    1.048   .     S
