data_e+0.2-opt
_audit_creation_date              2024-12-22
_audit_creation_method            'Materials Studio'
_symmetry_space_group_name_H-M    'P1'
_symmetry_Int_Tables_number       1
_symmetry_cell_setting            triclinic
loop_
_symmetry_equiv_pos_as_xyz
  x,y,z
_cell_length_a                    8.3982
_cell_length_b                    8.3982
_cell_length_c                    20.0460
_cell_angle_alpha                 90.0000
_cell_angle_beta                  90.0000
_cell_angle_gamma                 90.0000
loop_
_atom_site_label
_atom_site_type_symbol
_atom_site_fract_x
_atom_site_fract_y
_atom_site_fract_z
_atom_site_U_iso_or_equiv
_atom_site_adp_type
_atom_site_occupancy
C001   C     0.49888   0.07276   0.13682   1.00000  Uiso   1.00
C002   C     0.35222   0.15438   0.13614   1.00000  Uiso   1.00
C003   C     0.64550   0.15444   0.13650   1.00000  Uiso   1.00
C004   C     0.79433   0.90302   0.13655   1.00000  Uiso   1.00
C005   C     0.79438   0.06996   0.13630   1.00000  Uiso   1.00
C006   C     0.91534   0.19117   0.13610   1.00000  Uiso   1.00
C007   C     0.83104   0.33991   0.13665   1.00000  Uiso   1.00
C008   C     0.20333   0.06994   0.13596   1.00000  Uiso   1.00
C009   C     0.08234   0.19115   0.13592   1.00000  Uiso   1.00
C010   C     0.16664   0.33986   0.13632   1.00000  Uiso   1.00
C011   C     0.08519   0.48661   0.13698   1.00000  Uiso   1.00
C012   C     0.16688   0.63319   0.13663   1.00000  Uiso   1.00
C013   C     0.35236   0.81873   0.13657   1.00000  Uiso   1.00
C014   C     0.20339   0.90303   0.13615   1.00000  Uiso   1.00
C015   C     0.08239   0.78182   0.13624   1.00000  Uiso   1.00
C016   C     0.64540   0.81868   0.13714   1.00000  Uiso   1.00
C017   C     0.83082   0.63318   0.13718   1.00000  Uiso   1.00
C018   C     0.91532   0.78181   0.13649   1.00000  Uiso   1.00
C019   C     0.49889   0.90038   0.13711   1.00000  Uiso   1.00
C020   C     0.91255   0.48661   0.13724   1.00000  Uiso   1.00
N001   N     0.66664   0.31857   0.13631   1.00000  Uiso   1.00
N002   N     0.33106   0.31849   0.13589   1.00000  Uiso   1.00
N003   N     0.33136   0.65469   0.13634   1.00000  Uiso   1.00
N004   N     0.66631   0.65459   0.13728   1.00000  Uiso   1.00
N005   N     0.49422   0.47950   0.23321   1.00000  Uiso   1.00
Fe001  Fe    0.49849   0.48774   0.14568   1.00000  Uiso   1.00
O001   O     0.49603   0.58734   0.27567   1.00000  Uiso   1.00
H001   H     0.48794   0.36424   0.25305   1.00000  Uiso   1.00
loop_
_geom_bond_atom_site_label_1
_geom_bond_atom_site_label_2
_geom_bond_distance
_geom_bond_site_symmetry_2
_ccdc_geom_bond_type
C001   C002    1.410   .     D
C001   C003    1.410   .     S
C001   C019    1.448   1_545 S
C002   C008    1.437   .     S
C002   N002    1.390   .     S
C003   C005    1.438   .     D
C003   N001    1.390   .     S
C004   C005    1.402   1_565 S
C004   C016    1.437   .     D
C004   C018    1.438   .     S
C005   C004    1.402   1_545 S
C005   C006    1.438   .     S
C006   C007    1.436   .     S
C006   C009    1.402   1_655 D
C007   C020    1.409   .     S
C007   N001    1.392   .     D
C008   C009    1.438   .     S
C008   C014    1.402   1_545 D
C009   C006    1.402   1_455 D
C009   C010    1.436   .     S
C010   C011    1.410   .     S
C010   N002    1.392   .     D
C011   C012    1.409   .     S
C011   C020    1.450   1_455 D
C012   C015    1.436   .     S
C012   N003    1.393   .     D
C013   C014    1.438   .     S
C013   C019    1.409   .     D
C013   N003    1.389   .     S
C014   C008    1.402   1_565 D
C014   C015    1.438   .     S
C015   C018    1.403   1_455 D
C016   C019    1.409   .     S
C016   N004    1.389   .     S
C017   C018    1.436   .     S
C017   C020    1.409   .     S
C017   N004    1.393   .     D
C018   C015    1.403   1_655 D
C019   C001    1.448   1_565 S
C020   C011    1.450   1_655 D
N001   Fe001   2.012   .     S
N002   Fe001   2.009   .     S
N003   Fe001   1.993   .     S
N004   Fe001   1.994   .     S
N005   Fe001   1.756   .     S
N005   O001    1.243   .     D
N005   H001    1.048   .     S
