data_e-0.8-opt
_audit_creation_date              2024-12-22
_audit_creation_method            'Materials Studio'
_symmetry_space_group_name_H-M    'P1'
_symmetry_Int_Tables_number       1
_symmetry_cell_setting            triclinic
loop_
_symmetry_equiv_pos_as_xyz
  x,y,z
_cell_length_a                    8.3899
_cell_length_b                    8.3899
_cell_length_c                    20.0261
_cell_angle_alpha                 90.0000
_cell_angle_beta                  90.0000
_cell_angle_gamma                 90.0000
loop_
_atom_site_label
_atom_site_type_symbol
_atom_site_fract_x
_atom_site_fract_y
_atom_site_fract_z
_atom_site_U_iso_or_equiv
_atom_site_adp_type
_atom_site_occupancy
C001   C     0.50043   0.08480   0.13991   1.00000  Uiso   1.00
C002   C     0.35408   0.16684   0.13936   1.00000  Uiso   1.00
C003   C     0.64677   0.16685   0.13902   1.00000  Uiso   1.00
C004   C     0.79573   0.91508   0.13845   1.00000  Uiso   1.00
C005   C     0.79575   0.08179   0.13830   1.00000  Uiso   1.00
C006   C     0.91699   0.20304   0.13762   1.00000  Uiso   1.00
C007   C     0.83230   0.35194   0.13772   1.00000  Uiso   1.00
C008   C     0.20508   0.08181   0.13852   1.00000  Uiso   1.00
C009   C     0.08386   0.20306   0.13780   1.00000  Uiso   1.00
C010   C     0.16853   0.35197   0.13806   1.00000  Uiso   1.00
C011   C     0.08661   0.49845   0.13786   1.00000  Uiso   1.00
C012   C     0.16852   0.64495   0.13787   1.00000  Uiso   1.00
C013   C     0.35405   0.83003   0.13917   1.00000  Uiso   1.00
C014   C     0.20506   0.91510   0.13842   1.00000  Uiso   1.00
C015   C     0.08383   0.79385   0.13771   1.00000  Uiso   1.00
C016   C     0.64673   0.83003   0.13930   1.00000  Uiso   1.00
C017   C     0.83229   0.64493   0.13801   1.00000  Uiso   1.00
C018   C     0.91695   0.79383   0.13778   1.00000  Uiso   1.00
C019   C     0.50039   0.91208   0.13993   1.00000  Uiso   1.00
C020   C     0.91421   0.49844   0.13780   1.00000  Uiso   1.00
N001   N     0.66760   0.33134   0.13835   1.00000  Uiso   1.00
N002   N     0.33327   0.33139   0.13892   1.00000  Uiso   1.00
N003   N     0.33322   0.66553   0.13857   1.00000  Uiso   1.00
N004   N     0.66755   0.66550   0.13885   1.00000  Uiso   1.00
N005   N     0.50118   0.49779   0.24339   1.00000  Uiso   1.00
Fe001  Fe    0.50043   0.49838   0.14599   1.00000  Uiso   1.00
O001   O     0.49421   0.62971   0.26991   1.00000  Uiso   1.00
O002   O     0.50863   0.36565   0.26970   1.00000  Uiso   1.00
loop_
_geom_bond_atom_site_label_1
_geom_bond_atom_site_label_2
_geom_bond_distance
_geom_bond_site_symmetry_2
_ccdc_geom_bond_type
C001   C002    1.408   .     D
C001   C003    1.408   .     S
C001   C019    1.449   1_545 S
C002   C008    1.439   .     S
C002   N002    1.391   .     S
C003   C005    1.439   .     D
C003   N001    1.391   .     S
C004   C005    1.399   1_565 S
C004   C016    1.439   .     D
C004   C018    1.438   .     S
C005   C004    1.399   1_545 S
C005   C006    1.439   .     S
C006   C007    1.437   .     S
C006   C009    1.400   1_655 D
C007   C020    1.408   .     S
C007   N001    1.393   .     D
C008   C009    1.439   .     S
C008   C014    1.399   1_545 D
C009   C006    1.400   1_455 D
C009   C010    1.437   .     S
C010   C011    1.408   .     S
C010   N002    1.393   .     D
C011   C012    1.408   .     S
C011   C020    1.446   1_455 D
C012   C015    1.437   .     S
C012   N003    1.393   .     D
C013   C014    1.439   .     S
C013   C019    1.408   .     D
C013   N003    1.391   .     S
C014   C008    1.399   1_565 D
C014   C015    1.439   .     S
C015   C018    1.400   1_455 D
C016   C019    1.408   .     S
C016   N004    1.391   .     S
C017   C018    1.437   .     S
C017   C020    1.408   .     S
C017   N004    1.393   .     D
C018   C015    1.400   1_655 D
C019   C001    1.449   1_565 S
C020   C011    1.446   1_655 D
N001   Fe001   1.989   .     S
N002   Fe001   1.987   .     S
N003   Fe001   1.989   .     S
N004   Fe001   1.988   .     S
N005   Fe001   1.951   .     S
N005   O001    1.229   .     S
N005   O002    1.229   .     D
