data_e+0.4-opt
_audit_creation_date              2024-12-22
_audit_creation_method            'Materials Studio'
_symmetry_space_group_name_H-M    'P1'
_symmetry_Int_Tables_number       1
_symmetry_cell_setting            triclinic
loop_
_symmetry_equiv_pos_as_xyz
  x,y,z
_cell_length_a                    8.3899
_cell_length_b                    8.3899
_cell_length_c                    20.0261
_cell_angle_alpha                 90.0000
_cell_angle_beta                  90.0000
_cell_angle_gamma                 90.0000
loop_
_atom_site_label
_atom_site_type_symbol
_atom_site_fract_x
_atom_site_fract_y
_atom_site_fract_z
_atom_site_U_iso_or_equiv
_atom_site_adp_type
_atom_site_occupancy
C001   C     0.50042   0.08475   0.13981   1.00000  Uiso   1.00
C002   C     0.35407   0.16680   0.13932   1.00000  Uiso   1.00
C003   C     0.64676   0.16682   0.13898   1.00000  Uiso   1.00
C004   C     0.79580   0.91527   0.13839   1.00000  Uiso   1.00
C005   C     0.79581   0.08161   0.13825   1.00000  Uiso   1.00
C006   C     0.91714   0.20301   0.13758   1.00000  Uiso   1.00
C007   C     0.83232   0.35191   0.13773   1.00000  Uiso   1.00
C008   C     0.20501   0.08161   0.13847   1.00000  Uiso   1.00
C009   C     0.08368   0.20302   0.13776   1.00000  Uiso   1.00
C010   C     0.16849   0.35193   0.13805   1.00000  Uiso   1.00
C011   C     0.08660   0.49845   0.13788   1.00000  Uiso   1.00
C012   C     0.16850   0.64497   0.13788   1.00000  Uiso   1.00
C013   C     0.35405   0.83006   0.13914   1.00000  Uiso   1.00
C014   C     0.20499   0.91527   0.13836   1.00000  Uiso   1.00
C015   C     0.08367   0.79388   0.13767   1.00000  Uiso   1.00
C016   C     0.64673   0.83008   0.13925   1.00000  Uiso   1.00
C017   C     0.83232   0.64497   0.13800   1.00000  Uiso   1.00
C018   C     0.91712   0.79387   0.13774   1.00000  Uiso   1.00
C019   C     0.50039   0.91213   0.13984   1.00000  Uiso   1.00
C020   C     0.91421   0.49844   0.13782   1.00000  Uiso   1.00
N001   N     0.66781   0.33103   0.13853   1.00000  Uiso   1.00
N002   N     0.33303   0.33104   0.13905   1.00000  Uiso   1.00
N003   N     0.33300   0.66584   0.13875   1.00000  Uiso   1.00
N004   N     0.66779   0.66584   0.13898   1.00000  Uiso   1.00
N005   N     0.50118   0.49780   0.24170   1.00000  Uiso   1.00
Fe001  Fe    0.50045   0.49838   0.14633   1.00000  Uiso   1.00
O001   O     0.49421   0.62894   0.27062   1.00000  Uiso   1.00
O002   O     0.50866   0.36641   0.27041   1.00000  Uiso   1.00
loop_
_geom_bond_atom_site_label_1
_geom_bond_atom_site_label_2
_geom_bond_distance
_geom_bond_site_symmetry_2
_ccdc_geom_bond_type
C001   C002    1.408   .     D
C001   C003    1.408   .     S
C001   C019    1.448   1_545 S
C002   C008    1.441   .     S
C002   N002    1.389   .     S
C003   C005    1.441   .     D
C003   N001    1.389   .     S
C004   C005    1.396   1_565 S
C004   C016    1.441   .     D
C004   C018    1.440   .     S
C005   C004    1.396   1_545 S
C005   C006    1.440   .     S
C006   C007    1.438   .     S
C006   C009    1.397   1_655 D
C007   C020    1.408   .     S
C007   N001    1.391   .     D
C008   C009    1.440   .     S
C008   C014    1.396   1_545 D
C009   C006    1.397   1_455 D
C009   C010    1.438   .     S
C010   C011    1.408   .     S
C010   N002    1.392   .     D
C011   C012    1.408   .     S
C011   C020    1.446   1_455 D
C012   C015    1.438   .     S
C012   N003    1.391   .     D
C013   C014    1.441   .     S
C013   C019    1.408   .     D
C013   N003    1.389   .     S
C014   C008    1.396   1_565 D
C014   C015    1.440   .     S
C015   C018    1.397   1_455 D
C016   C019    1.408   .     S
C016   N004    1.389   .     S
C017   C018    1.438   .     S
C017   C020    1.408   .     S
C017   N004    1.392   .     D
C018   C015    1.397   1_655 D
C019   C001    1.448   1_565 S
C020   C011    1.446   1_655 D
N001   Fe001   1.992   .     S
N002   Fe001   1.991   .     S
N003   Fe001   1.993   .     S
N004   Fe001   1.992   .     S
N005   Fe001   1.910   .     S
N005   O001    1.245   .     S
N005   O002    1.245   .     D
