data_e+1.0-opt
_audit_creation_date              2024-12-22
_audit_creation_method            'Materials Studio'
_symmetry_space_group_name_H-M    'P1'
_symmetry_Int_Tables_number       1
_symmetry_cell_setting            triclinic
loop_
_symmetry_equiv_pos_as_xyz
  x,y,z
_cell_length_a                    8.3899
_cell_length_b                    8.3899
_cell_length_c                    20.0261
_cell_angle_alpha                 90.0000
_cell_angle_beta                  90.0000
_cell_angle_gamma                 90.0000
loop_
_atom_site_label
_atom_site_type_symbol
_atom_site_fract_x
_atom_site_fract_y
_atom_site_fract_z
_atom_site_U_iso_or_equiv
_atom_site_adp_type
_atom_site_occupancy
C001   C     0.50042   0.08474   0.13981   1.00000  Uiso   1.00
C002   C     0.35411   0.16680   0.13931   1.00000  Uiso   1.00
C003   C     0.64671   0.16683   0.13897   1.00000  Uiso   1.00
C004   C     0.79584   0.91543   0.13841   1.00000  Uiso   1.00
C005   C     0.79585   0.08145   0.13826   1.00000  Uiso   1.00
C006   C     0.91730   0.20296   0.13759   1.00000  Uiso   1.00
C007   C     0.83229   0.35197   0.13772   1.00000  Uiso   1.00
C008   C     0.20496   0.08145   0.13848   1.00000  Uiso   1.00
C009   C     0.08352   0.20297   0.13777   1.00000  Uiso   1.00
C010   C     0.16851   0.35198   0.13805   1.00000  Uiso   1.00
C011   C     0.08660   0.49845   0.13788   1.00000  Uiso   1.00
C012   C     0.16852   0.64492   0.13787   1.00000  Uiso   1.00
C013   C     0.35409   0.83005   0.13913   1.00000  Uiso   1.00
C014   C     0.20495   0.91543   0.13837   1.00000  Uiso   1.00
C015   C     0.08351   0.79393   0.13768   1.00000  Uiso   1.00
C016   C     0.64669   0.83007   0.13925   1.00000  Uiso   1.00
C017   C     0.83230   0.64491   0.13799   1.00000  Uiso   1.00
C018   C     0.91729   0.79392   0.13775   1.00000  Uiso   1.00
C019   C     0.50038   0.91214   0.13984   1.00000  Uiso   1.00
C020   C     0.91420   0.49844   0.13783   1.00000  Uiso   1.00
N001   N     0.66790   0.33095   0.13860   1.00000  Uiso   1.00
N002   N     0.33293   0.33095   0.13913   1.00000  Uiso   1.00
N003   N     0.33291   0.66592   0.13882   1.00000  Uiso   1.00
N004   N     0.66788   0.66593   0.13905   1.00000  Uiso   1.00
N005   N     0.50118   0.49782   0.24133   1.00000  Uiso   1.00
Fe001  Fe    0.50045   0.49837   0.14621   1.00000  Uiso   1.00
O001   O     0.49413   0.62879   0.27070   1.00000  Uiso   1.00
O002   O     0.50876   0.36654   0.27049   1.00000  Uiso   1.00
loop_
_geom_bond_atom_site_label_1
_geom_bond_atom_site_label_2
_geom_bond_distance
_geom_bond_site_symmetry_2
_ccdc_geom_bond_type
C001   C002    1.407   .     D
C001   C003    1.407   .     S
C001   C019    1.448   1_545 S
C002   C008    1.442   .     S
C002   N002    1.389   .     S
C003   C005    1.442   .     D
C003   N001    1.388   .     S
C004   C005    1.393   1_565 S
C004   C016    1.442   .     D
C004   C018    1.441   .     S
C005   C004    1.393   1_545 S
C005   C006    1.441   .     S
C006   C007    1.439   .     S
C006   C009    1.395   1_655 D
C007   C020    1.408   .     S
C007   N001    1.391   .     D
C008   C009    1.441   .     S
C008   C014    1.393   1_545 D
C009   C006    1.395   1_455 D
C009   C010    1.439   .     S
C010   C011    1.408   .     S
C010   N002    1.391   .     D
C011   C012    1.408   .     S
C011   C020    1.446   1_455 D
C012   C015    1.439   .     S
C012   N003    1.391   .     D
C013   C014    1.442   .     S
C013   C019    1.407   .     D
C013   N003    1.388   .     S
C014   C008    1.393   1_565 D
C014   C015    1.441   .     S
C015   C018    1.395   1_455 D
C016   C019    1.407   .     S
C016   N004    1.389   .     S
C017   C018    1.439   .     S
C017   C020    1.408   .     S
C017   N004    1.391   .     D
C018   C015    1.395   1_655 D
C019   C001    1.448   1_565 S
C020   C011    1.446   1_655 D
N001   Fe001   1.993   .     S
N002   Fe001   1.992   .     S
N003   Fe001   1.993   .     S
N004   Fe001   1.992   .     S
N005   Fe001   1.905   .     S
N005   O001    1.248   .     S
N005   O002    1.248   .     D
