data_e+0.6-opt
_audit_creation_date              2024-12-22
_audit_creation_method            'Materials Studio'
_symmetry_space_group_name_H-M    'P1'
_symmetry_Int_Tables_number       1
_symmetry_cell_setting            triclinic
loop_
_symmetry_equiv_pos_as_xyz
  x,y,z
_cell_length_a                    8.3899
_cell_length_b                    8.3899
_cell_length_c                    20.0261
_cell_angle_alpha                 90.0000
_cell_angle_beta                  90.0000
_cell_angle_gamma                 90.0000
loop_
_atom_site_label
_atom_site_type_symbol
_atom_site_fract_x
_atom_site_fract_y
_atom_site_fract_z
_atom_site_U_iso_or_equiv
_atom_site_adp_type
_atom_site_occupancy
C001   C     0.50042   0.08471   0.13980   1.00000  Uiso   1.00
C002   C     0.35409   0.16683   0.13930   1.00000  Uiso   1.00
C003   C     0.64673   0.16685   0.13896   1.00000  Uiso   1.00
C004   C     0.79578   0.91531   0.13839   1.00000  Uiso   1.00
C005   C     0.79579   0.08157   0.13824   1.00000  Uiso   1.00
C006   C     0.91720   0.20302   0.13757   1.00000  Uiso   1.00
C007   C     0.83227   0.35193   0.13772   1.00000  Uiso   1.00
C008   C     0.20502   0.08158   0.13846   1.00000  Uiso   1.00
C009   C     0.08362   0.20303   0.13775   1.00000  Uiso   1.00
C010   C     0.16854   0.35194   0.13805   1.00000  Uiso   1.00
C011   C     0.08655   0.49845   0.13787   1.00000  Uiso   1.00
C012   C     0.16855   0.64495   0.13787   1.00000  Uiso   1.00
C013   C     0.35408   0.83002   0.13912   1.00000  Uiso   1.00
C014   C     0.20501   0.91531   0.13835   1.00000  Uiso   1.00
C015   C     0.08361   0.79386   0.13766   1.00000  Uiso   1.00
C016   C     0.64672   0.83004   0.13924   1.00000  Uiso   1.00
C017   C     0.83227   0.64495   0.13799   1.00000  Uiso   1.00
C018   C     0.91719   0.79386   0.13773   1.00000  Uiso   1.00
C019   C     0.50038   0.91217   0.13982   1.00000  Uiso   1.00
C020   C     0.91426   0.49844   0.13782   1.00000  Uiso   1.00
N001   N     0.66775   0.33107   0.13855   1.00000  Uiso   1.00
N002   N     0.33308   0.33109   0.13907   1.00000  Uiso   1.00
N003   N     0.33306   0.66579   0.13878   1.00000  Uiso   1.00
N004   N     0.66773   0.66580   0.13900   1.00000  Uiso   1.00
N005   N     0.50118   0.49778   0.24149   1.00000  Uiso   1.00
Fe001  Fe    0.50045   0.49838   0.14635   1.00000  Uiso   1.00
O001   O     0.49418   0.62882   0.27078   1.00000  Uiso   1.00
O002   O     0.50869   0.36656   0.27056   1.00000  Uiso   1.00
loop_
_geom_bond_atom_site_label_1
_geom_bond_atom_site_label_2
_geom_bond_distance
_geom_bond_site_symmetry_2
_ccdc_geom_bond_type
C001   C002    1.408   .     D
C001   C003    1.408   .     S
C001   C019    1.448   1_545 S
C002   C008    1.441   .     S
C002   N002    1.389   .     S
C003   C005    1.441   .     D
C003   N001    1.389   .     S
C004   C005    1.395   1_565 S
C004   C016    1.441   .     D
C004   C018    1.441   .     S
C005   C004    1.395   1_545 S
C005   C006    1.441   .     S
C006   C007    1.438   .     S
C006   C009    1.396   1_655 D
C007   C020    1.409   .     S
C007   N001    1.391   .     D
C008   C009    1.441   .     S
C008   C014    1.395   1_545 D
C009   C006    1.396   1_455 D
C009   C010    1.438   .     S
C010   C011    1.409   .     S
C010   N002    1.392   .     D
C011   C012    1.409   .     S
C011   C020    1.446   1_455 D
C012   C015    1.438   .     S
C012   N003    1.391   .     D
C013   C014    1.441   .     S
C013   C019    1.408   .     D
C013   N003    1.389   .     S
C014   C008    1.395   1_565 D
C014   C015    1.441   .     S
C015   C018    1.396   1_455 D
C016   C019    1.408   .     S
C016   N004    1.389   .     S
C017   C018    1.438   .     S
C017   C020    1.409   .     S
C017   N004    1.392   .     D
C018   C015    1.396   1_655 D
C019   C001    1.448   1_565 S
C020   C011    1.446   1_655 D
N001   Fe001   1.991   .     S
N002   Fe001   1.991   .     S
N003   Fe001   1.992   .     S
N004   Fe001   1.991   .     S
N005   Fe001   1.905   .     S
N005   O001    1.247   .     S
N005   O002    1.247   .     D
