data_e-0.2-opt
_audit_creation_date              2024-12-22
_audit_creation_method            'Materials Studio'
_symmetry_space_group_name_H-M    'P1'
_symmetry_Int_Tables_number       1
_symmetry_cell_setting            triclinic
loop_
_symmetry_equiv_pos_as_xyz
  x,y,z
_cell_length_a                    8.3899
_cell_length_b                    8.3899
_cell_length_c                    20.0261
_cell_angle_alpha                 90.0000
_cell_angle_beta                  90.0000
_cell_angle_gamma                 90.0000
loop_
_atom_site_label
_atom_site_type_symbol
_atom_site_fract_x
_atom_site_fract_y
_atom_site_fract_z
_atom_site_U_iso_or_equiv
_atom_site_adp_type
_atom_site_occupancy
C001   C     0.50042   0.08476   0.13987   1.00000  Uiso   1.00
C002   C     0.35404   0.16679   0.13935   1.00000  Uiso   1.00
C003   C     0.64679   0.16681   0.13901   1.00000  Uiso   1.00
C004   C     0.79578   0.91515   0.13844   1.00000  Uiso   1.00
C005   C     0.79579   0.08172   0.13830   1.00000  Uiso   1.00
C006   C     0.91704   0.20303   0.13762   1.00000  Uiso   1.00
C007   C     0.83235   0.35189   0.13773   1.00000  Uiso   1.00
C008   C     0.20503   0.08174   0.13851   1.00000  Uiso   1.00
C009   C     0.08380   0.20304   0.13780   1.00000  Uiso   1.00
C010   C     0.16846   0.35191   0.13807   1.00000  Uiso   1.00
C011   C     0.08657   0.49846   0.13788   1.00000  Uiso   1.00
C012   C     0.16846   0.64501   0.13788   1.00000  Uiso   1.00
C013   C     0.35402   0.83007   0.13916   1.00000  Uiso   1.00
C014   C     0.20501   0.91516   0.13841   1.00000  Uiso   1.00
C015   C     0.08377   0.79386   0.13771   1.00000  Uiso   1.00
C016   C     0.64676   0.83008   0.13929   1.00000  Uiso   1.00
C017   C     0.83235   0.64500   0.13801   1.00000  Uiso   1.00
C018   C     0.91701   0.79385   0.13778   1.00000  Uiso   1.00
C019   C     0.50038   0.91212   0.13990   1.00000  Uiso   1.00
C020   C     0.91423   0.49844   0.13782   1.00000  Uiso   1.00
N001   N     0.66773   0.33115   0.13841   1.00000  Uiso   1.00
N002   N     0.33313   0.33118   0.13897   1.00000  Uiso   1.00
N003   N     0.33309   0.66572   0.13863   1.00000  Uiso   1.00
N004   N     0.66769   0.66571   0.13889   1.00000  Uiso   1.00
N005   N     0.50119   0.49778   0.24245   1.00000  Uiso   1.00
Fe001  Fe    0.50044   0.49839   0.14620   1.00000  Uiso   1.00
O001   O     0.49416   0.62927   0.27019   1.00000  Uiso   1.00
O002   O     0.50871   0.36605   0.27000   1.00000  Uiso   1.00
loop_
_geom_bond_atom_site_label_1
_geom_bond_atom_site_label_2
_geom_bond_distance
_geom_bond_site_symmetry_2
_ccdc_geom_bond_type
C001   C002    1.408   .     D
C001   C003    1.408   .     S
C001   C019    1.448   1_545 S
C002   C008    1.440   .     S
C002   N002    1.390   .     S
C003   C005    1.440   .     D
C003   N001    1.390   .     S
C004   C005    1.398   1_565 S
C004   C016    1.440   .     D
C004   C018    1.439   .     S
C005   C004    1.398   1_545 S
C005   C006    1.439   .     S
C006   C007    1.437   .     S
C006   C009    1.399   1_655 D
C007   C020    1.408   .     S
C007   N001    1.392   .     D
C008   C009    1.439   .     S
C008   C014    1.398   1_545 D
C009   C006    1.399   1_455 D
C009   C010    1.437   .     S
C010   C011    1.408   .     S
C010   N002    1.393   .     D
C011   C012    1.408   .     S
C011   C020    1.446   1_455 D
C012   C015    1.437   .     S
C012   N003    1.392   .     D
C013   C014    1.440   .     S
C013   C019    1.408   .     D
C013   N003    1.390   .     S
C014   C008    1.398   1_565 D
C014   C015    1.439   .     S
C015   C018    1.399   1_455 D
C016   C019    1.408   .     S
C016   N004    1.390   .     S
C017   C018    1.437   .     S
C017   C020    1.408   .     S
C017   N004    1.392   .     D
C018   C015    1.399   1_655 D
C019   C001    1.448   1_565 S
C020   C011    1.446   1_655 D
N001   Fe001   1.991   .     S
N002   Fe001   1.990   .     S
N003   Fe001   1.991   .     S
N004   Fe001   1.990   .     S
N005   Fe001   1.927   .     S
N005   O001    1.237   .     S
N005   O002    1.237   .     D
