data_e+0.0-opt
_audit_creation_date              2024-12-22
_audit_creation_method            'Materials Studio'
_symmetry_space_group_name_H-M    'P1'
_symmetry_Int_Tables_number       1
_symmetry_cell_setting            triclinic
loop_
_symmetry_equiv_pos_as_xyz
  x,y,z
_cell_length_a                    8.3899
_cell_length_b                    8.3899
_cell_length_c                    20.0261
_cell_angle_alpha                 90.0000
_cell_angle_beta                  90.0000
_cell_angle_gamma                 90.0000
loop_
_atom_site_label
_atom_site_type_symbol
_atom_site_fract_x
_atom_site_fract_y
_atom_site_fract_z
_atom_site_U_iso_or_equiv
_atom_site_adp_type
_atom_site_occupancy
C001   C     0.50042   0.08475   0.13986   1.00000  Uiso   1.00
C002   C     0.35406   0.16678   0.13935   1.00000  Uiso   1.00
C003   C     0.64677   0.16680   0.13901   1.00000  Uiso   1.00
C004   C     0.79578   0.91519   0.13843   1.00000  Uiso   1.00
C005   C     0.79579   0.08168   0.13828   1.00000  Uiso   1.00
C006   C     0.91707   0.20301   0.13761   1.00000  Uiso   1.00
C007   C     0.83234   0.35190   0.13774   1.00000  Uiso   1.00
C008   C     0.20503   0.08170   0.13850   1.00000  Uiso   1.00
C009   C     0.08376   0.20303   0.13779   1.00000  Uiso   1.00
C010   C     0.16847   0.35192   0.13807   1.00000  Uiso   1.00
C011   C     0.08659   0.49845   0.13788   1.00000  Uiso   1.00
C012   C     0.16848   0.64498   0.13789   1.00000  Uiso   1.00
C013   C     0.35404   0.83008   0.13916   1.00000  Uiso   1.00
C014   C     0.20502   0.91520   0.13840   1.00000  Uiso   1.00
C015   C     0.08374   0.79387   0.13770   1.00000  Uiso   1.00
C016   C     0.64675   0.83009   0.13929   1.00000  Uiso   1.00
C017   C     0.83234   0.64498   0.13802   1.00000  Uiso   1.00
C018   C     0.91705   0.79386   0.13777   1.00000  Uiso   1.00
C019   C     0.50038   0.91213   0.13989   1.00000  Uiso   1.00
C020   C     0.91422   0.49844   0.13783   1.00000  Uiso   1.00
N001   N     0.66775   0.33111   0.13846   1.00000  Uiso   1.00
N002   N     0.33310   0.33113   0.13900   1.00000  Uiso   1.00
N003   N     0.33306   0.66576   0.13868   1.00000  Uiso   1.00
N004   N     0.66772   0.66575   0.13893   1.00000  Uiso   1.00
N005   N     0.50119   0.49779   0.24215   1.00000  Uiso   1.00
Fe001  Fe    0.50044   0.49838   0.14624   1.00000  Uiso   1.00
O001   O     0.49419   0.62920   0.27030   1.00000  Uiso   1.00
O002   O     0.50868   0.36618   0.27008   1.00000  Uiso   1.00
loop_
_geom_bond_atom_site_label_1
_geom_bond_atom_site_label_2
_geom_bond_distance
_geom_bond_site_symmetry_2
_ccdc_geom_bond_type
C001   C002    1.408   .     D
C001   C003    1.408   .     S
C001   C019    1.448   1_545 S
C002   C008    1.440   .     S
C002   N002    1.390   .     S
C003   C005    1.440   .     D
C003   N001    1.390   .     S
C004   C005    1.397   1_565 S
C004   C016    1.440   .     D
C004   C018    1.439   .     S
C005   C004    1.397   1_545 S
C005   C006    1.439   .     S
C006   C007    1.437   .     S
C006   C009    1.399   1_655 D
C007   C020    1.408   .     S
C007   N001    1.392   .     D
C008   C009    1.439   .     S
C008   C014    1.397   1_545 D
C009   C006    1.399   1_455 D
C009   C010    1.437   .     S
C010   C011    1.408   .     S
C010   N002    1.392   .     D
C011   C012    1.408   .     S
C011   C020    1.446   1_455 D
C012   C015    1.437   .     S
C012   N003    1.392   .     D
C013   C014    1.440   .     S
C013   C019    1.408   .     D
C013   N003    1.390   .     S
C014   C008    1.397   1_565 D
C014   C015    1.439   .     S
C015   C018    1.399   1_455 D
C016   C019    1.408   .     S
C016   N004    1.390   .     S
C017   C018    1.437   .     S
C017   C020    1.408   .     S
C017   N004    1.392   .     D
C018   C015    1.399   1_655 D
C019   C001    1.448   1_565 S
C020   C011    1.446   1_655 D
N001   Fe001   1.991   .     S
N002   Fe001   1.990   .     S
N003   Fe001   1.992   .     S
N004   Fe001   1.991   .     S
N005   Fe001   1.921   .     S
N005   O001    1.240   .     S
N005   O002    1.239   .     D
