data_e-0.4-opt
_audit_creation_date              2024-12-22
_audit_creation_method            'Materials Studio'
_symmetry_space_group_name_H-M    'P1'
_symmetry_Int_Tables_number       1
_symmetry_cell_setting            triclinic
loop_
_symmetry_equiv_pos_as_xyz
  x,y,z
_cell_length_a                    8.3899
_cell_length_b                    8.3899
_cell_length_c                    20.0261
_cell_angle_alpha                 90.0000
_cell_angle_beta                  90.0000
_cell_angle_gamma                 90.0000
loop_
_atom_site_label
_atom_site_type_symbol
_atom_site_fract_x
_atom_site_fract_y
_atom_site_fract_z
_atom_site_U_iso_or_equiv
_atom_site_adp_type
_atom_site_occupancy
C001   C     0.50042   0.08481   0.13991   1.00000  Uiso   1.00
C002   C     0.35405   0.16682   0.13938   1.00000  Uiso   1.00
C003   C     0.64679   0.16683   0.13903   1.00000  Uiso   1.00
C004   C     0.79575   0.91511   0.13847   1.00000  Uiso   1.00
C005   C     0.79577   0.08176   0.13832   1.00000  Uiso   1.00
C006   C     0.91699   0.20305   0.13765   1.00000  Uiso   1.00
C007   C     0.83233   0.35191   0.13775   1.00000  Uiso   1.00
C008   C     0.20506   0.08178   0.13854   1.00000  Uiso   1.00
C009   C     0.08385   0.20307   0.13783   1.00000  Uiso   1.00
C010   C     0.16848   0.35193   0.13809   1.00000  Uiso   1.00
C011   C     0.08663   0.49845   0.13789   1.00000  Uiso   1.00
C012   C     0.16848   0.64498   0.13789   1.00000  Uiso   1.00
C013   C     0.35403   0.83005   0.13918   1.00000  Uiso   1.00
C014   C     0.20504   0.91512   0.13843   1.00000  Uiso   1.00
C015   C     0.08382   0.79384   0.13773   1.00000  Uiso   1.00
C016   C     0.64675   0.83006   0.13931   1.00000  Uiso   1.00
C017   C     0.83233   0.64497   0.13803   1.00000  Uiso   1.00
C018   C     0.91696   0.79382   0.13781   1.00000  Uiso   1.00
C019   C     0.50039   0.91207   0.13994   1.00000  Uiso   1.00
C020   C     0.91417   0.49844   0.13784   1.00000  Uiso   1.00
N001   N     0.66766   0.33123   0.13837   1.00000  Uiso   1.00
N002   N     0.33320   0.33127   0.13894   1.00000  Uiso   1.00
N003   N     0.33315   0.66563   0.13859   1.00000  Uiso   1.00
N004   N     0.66762   0.66562   0.13886   1.00000  Uiso   1.00
N005   N     0.50119   0.49781   0.24264   1.00000  Uiso   1.00
Fe001  Fe    0.50043   0.49838   0.14610   1.00000  Uiso   1.00
O001   O     0.49413   0.62944   0.26999   1.00000  Uiso   1.00
O002   O     0.50875   0.36592   0.26979   1.00000  Uiso   1.00
loop_
_geom_bond_atom_site_label_1
_geom_bond_atom_site_label_2
_geom_bond_distance
_geom_bond_site_symmetry_2
_ccdc_geom_bond_type
C001   C002    1.408   .     D
C001   C003    1.408   .     S
C001   C019    1.449   1_545 S
C002   C008    1.439   .     S
C002   N002    1.391   .     S
C003   C005    1.439   .     D
C003   N001    1.390   .     S
C004   C005    1.398   1_565 S
C004   C016    1.439   .     D
C004   C018    1.439   .     S
C005   C004    1.398   1_545 S
C005   C006    1.439   .     S
C006   C007    1.437   .     S
C006   C009    1.400   1_655 D
C007   C020    1.408   .     S
C007   N001    1.392   .     D
C008   C009    1.439   .     S
C008   C014    1.398   1_545 D
C009   C006    1.400   1_455 D
C009   C010    1.437   .     S
C010   C011    1.408   .     S
C010   N002    1.393   .     D
C011   C012    1.408   .     S
C011   C020    1.447   1_455 D
C012   C015    1.437   .     S
C012   N003    1.392   .     D
C013   C014    1.439   .     S
C013   C019    1.408   .     D
C013   N003    1.391   .     S
C014   C008    1.398   1_565 D
C014   C015    1.439   .     S
C015   C018    1.400   1_455 D
C016   C019    1.408   .     S
C016   N004    1.391   .     S
C017   C018    1.437   .     S
C017   C020    1.408   .     S
C017   N004    1.393   .     D
C018   C015    1.400   1_655 D
C019   C001    1.449   1_565 S
C020   C011    1.447   1_655 D
N001   Fe001   1.990   .     S
N002   Fe001   1.989   .     S
N003   Fe001   1.990   .     S
N004   Fe001   1.989   .     S
N005   Fe001   1.933   .     S
N005   O001    1.234   .     S
N005   O002    1.235   .     D
