data_e+0.8-opt
_audit_creation_date              2024-12-22
_audit_creation_method            'Materials Studio'
_symmetry_space_group_name_H-M    'P1'
_symmetry_Int_Tables_number       1
_symmetry_cell_setting            triclinic
loop_
_symmetry_equiv_pos_as_xyz
  x,y,z
_cell_length_a                    8.3899
_cell_length_b                    8.3899
_cell_length_c                    20.0261
_cell_angle_alpha                 90.0000
_cell_angle_beta                  90.0000
_cell_angle_gamma                 90.0000
loop_
_atom_site_label
_atom_site_type_symbol
_atom_site_fract_x
_atom_site_fract_y
_atom_site_fract_z
_atom_site_U_iso_or_equiv
_atom_site_adp_type
_atom_site_occupancy
C001   C     0.50042   0.08474   0.13977   1.00000  Uiso   1.00
C002   C     0.35408   0.16678   0.13928   1.00000  Uiso   1.00
C003   C     0.64673   0.16681   0.13894   1.00000  Uiso   1.00
C004   C     0.79581   0.91535   0.13838   1.00000  Uiso   1.00
C005   C     0.79582   0.08154   0.13823   1.00000  Uiso   1.00
C006   C     0.91723   0.20299   0.13756   1.00000  Uiso   1.00
C007   C     0.83230   0.35194   0.13770   1.00000  Uiso   1.00
C008   C     0.20499   0.08153   0.13845   1.00000  Uiso   1.00
C009   C     0.08360   0.20300   0.13774   1.00000  Uiso   1.00
C010   C     0.16850   0.35195   0.13802   1.00000  Uiso   1.00
C011   C     0.08661   0.49845   0.13786   1.00000  Uiso   1.00
C012   C     0.16852   0.64495   0.13785   1.00000  Uiso   1.00
C013   C     0.35407   0.83007   0.13909   1.00000  Uiso   1.00
C014   C     0.20498   0.91535   0.13834   1.00000  Uiso   1.00
C015   C     0.08359   0.79389   0.13764   1.00000  Uiso   1.00
C016   C     0.64672   0.83009   0.13922   1.00000  Uiso   1.00
C017   C     0.83231   0.64495   0.13797   1.00000  Uiso   1.00
C018   C     0.91721   0.79389   0.13772   1.00000  Uiso   1.00
C019   C     0.50038   0.91214   0.13980   1.00000  Uiso   1.00
C020   C     0.91419   0.49844   0.13780   1.00000  Uiso   1.00
N001   N     0.66785   0.33098   0.13856   1.00000  Uiso   1.00
N002   N     0.33298   0.33098   0.13907   1.00000  Uiso   1.00
N003   N     0.33297   0.66589   0.13878   1.00000  Uiso   1.00
N004   N     0.66783   0.66590   0.13900   1.00000  Uiso   1.00
N005   N     0.50118   0.49781   0.24133   1.00000  Uiso   1.00
Fe001  Fe    0.50045   0.49838   0.14640   1.00000  Uiso   1.00
O001   O     0.49414   0.62872   0.27101   1.00000  Uiso   1.00
O002   O     0.50875   0.36663   0.27080   1.00000  Uiso   1.00
loop_
_geom_bond_atom_site_label_1
_geom_bond_atom_site_label_2
_geom_bond_distance
_geom_bond_site_symmetry_2
_ccdc_geom_bond_type
C001   C002    1.408   .     D
C001   C003    1.408   .     S
C001   C019    1.448   1_545 S
C002   C008    1.441   .     S
C002   N002    1.389   .     S
C003   C005    1.441   .     D
C003   N001    1.389   .     S
C004   C005    1.394   1_565 S
C004   C016    1.441   .     D
C004   C018    1.441   .     S
C005   C004    1.394   1_545 S
C005   C006    1.441   .     S
C006   C007    1.438   .     S
C006   C009    1.396   1_655 D
C007   C020    1.408   .     S
C007   N001    1.391   .     D
C008   C009    1.441   .     S
C008   C014    1.394   1_545 D
C009   C006    1.396   1_455 D
C009   C010    1.438   .     S
C010   C011    1.408   .     S
C010   N002    1.391   .     D
C011   C012    1.408   .     S
C011   C020    1.447   1_455 D
C012   C015    1.439   .     S
C012   N003    1.391   .     D
C013   C014    1.441   .     S
C013   C019    1.408   .     D
C013   N003    1.389   .     S
C014   C008    1.394   1_565 D
C014   C015    1.441   .     S
C015   C018    1.396   1_455 D
C016   C019    1.408   .     S
C016   N004    1.389   .     S
C017   C018    1.438   .     S
C017   C020    1.408   .     S
C017   N004    1.391   .     D
C018   C015    1.396   1_655 D
C019   C001    1.448   1_565 S
C020   C011    1.447   1_655 D
N001   Fe001   1.992   .     S
N002   Fe001   1.992   .     S
N003   Fe001   1.993   .     S
N004   Fe001   1.992   .     S
N005   Fe001   1.901   .     S
N005   O001    1.250   .     S
N005   O002    1.251   .     D
