data_e+0.2-opt
_audit_creation_date              2024-12-22
_audit_creation_method            'Materials Studio'
_symmetry_space_group_name_H-M    'P1'
_symmetry_Int_Tables_number       1
_symmetry_cell_setting            triclinic
loop_
_symmetry_equiv_pos_as_xyz
  x,y,z
_cell_length_a                    8.3950
_cell_length_b                    8.3950
_cell_length_c                    20.0383
_cell_angle_alpha                 90.0000
_cell_angle_beta                  90.0000
_cell_angle_gamma                 90.0000
loop_
_atom_site_label
_atom_site_type_symbol
_atom_site_fract_x
_atom_site_fract_y
_atom_site_fract_z
_atom_site_U_iso_or_equiv
_atom_site_adp_type
_atom_site_occupancy
C001   C     0.50067   0.08072   0.14003   1.00000  Uiso   1.00
C002   C     0.35424   0.16257   0.13964   1.00000  Uiso   1.00
C003   C     0.64711   0.16257   0.13964   1.00000  Uiso   1.00
C004   C     0.79624   0.91046   0.13914   1.00000  Uiso   1.00
C005   C     0.79619   0.07795   0.13879   1.00000  Uiso   1.00
C006   C     0.91692   0.19867   0.13857   1.00000  Uiso   1.00
C007   C     0.83258   0.34757   0.13974   1.00000  Uiso   1.00
C008   C     0.20515   0.07795   0.13880   1.00000  Uiso   1.00
C009   C     0.08442   0.19867   0.13857   1.00000  Uiso   1.00
C010   C     0.16876   0.34757   0.13974   1.00000  Uiso   1.00
C011   C     0.08702   0.49414   0.14062   1.00000  Uiso   1.00
C012   C     0.16889   0.64063   0.14047   1.00000  Uiso   1.00
C013   C     0.35428   0.82631   0.13988   1.00000  Uiso   1.00
C014   C     0.20510   0.91046   0.13915   1.00000  Uiso   1.00
C015   C     0.08452   0.78953   0.13943   1.00000  Uiso   1.00
C016   C     0.64706   0.82631   0.13988   1.00000  Uiso   1.00
C017   C     0.83245   0.64063   0.14046   1.00000  Uiso   1.00
C018   C     0.91682   0.78953   0.13943   1.00000  Uiso   1.00
C019   C     0.50067   0.90827   0.14010   1.00000  Uiso   1.00
C020   C     0.91432   0.49414   0.14062   1.00000  Uiso   1.00
N001   N     0.66831   0.32650   0.14031   1.00000  Uiso   1.00
N002   N     0.33303   0.32650   0.14031   1.00000  Uiso   1.00
N003   N     0.33352   0.66201   0.14048   1.00000  Uiso   1.00
N004   N     0.66782   0.66201   0.14047   1.00000  Uiso   1.00
N005   N     0.50070   0.50051   0.26611   1.00000  Uiso   1.00
Fe001  Fe    0.50067   0.49530   0.15389   1.00000  Uiso   1.00
H001   H     0.50068   0.61902   0.28297   1.00000  Uiso   1.00
loop_
_geom_bond_atom_site_label_1
_geom_bond_atom_site_label_2
_geom_bond_distance
_geom_bond_site_symmetry_2
_ccdc_geom_bond_type
C001   C002    1.408   .     D
C001   C003    1.408   .     S
C001   C019    1.448   1_545 S
C002   C008    1.439   .     S
C002   N002    1.388   .     S
C003   C005    1.439   .     D
C003   N001    1.388   .     S
C004   C005    1.406   1_565 S
C004   C016    1.438   .     D
C004   C018    1.434   .     S
C005   C004    1.406   1_545 S
C005   C006    1.433   .     S
C006   C007    1.437   .     S
C006   C009    1.406   1_655 D
C007   C020    1.409   .     S
C007   N001    1.390   .     D
C008   C009    1.433   .     S
C008   C014    1.406   1_545 D
C009   C006    1.406   1_455 D
C009   C010    1.437   .     S
C010   C011    1.409   .     S
C010   N002    1.390   .     D
C011   C012    1.409   .     S
C011   C020    1.450   1_455 D
C012   C015    1.437   .     S
C012   N003    1.394   .     D
C013   C014    1.438   .     S
C013   C019    1.408   .     D
C013   N003    1.390   .     S
C014   C008    1.406   1_565 D
C014   C015    1.434   .     S
C015   C018    1.408   1_455 D
C016   C019    1.408   .     S
C016   N004    1.390   .     S
C017   C018    1.437   .     S
C017   C020    1.409   .     S
C017   N004    1.394   .     D
C018   C015    1.408   1_655 D
C019   C001    1.448   1_565 S
C020   C011    1.450   1_655 D
N001   Fe001   2.016   .     S
N002   Fe001   2.016   .     S
N003   Fe001   2.000   .     S
N004   Fe001   2.000   .     S
N005   Fe001   2.249   .     S
N005   H001    1.051   .     S
