data_e-0.8-opt
_audit_creation_date              2024-12-22
_audit_creation_method            'Materials Studio'
_symmetry_space_group_name_H-M    'P1'
_symmetry_Int_Tables_number       1
_symmetry_cell_setting            triclinic
loop_
_symmetry_equiv_pos_as_xyz
  x,y,z
_cell_length_a                    8.3950
_cell_length_b                    8.3950
_cell_length_c                    20.0383
_cell_angle_alpha                 90.0000
_cell_angle_beta                  90.0000
_cell_angle_gamma                 90.0000
loop_
_atom_site_label
_atom_site_type_symbol
_atom_site_fract_x
_atom_site_fract_y
_atom_site_fract_z
_atom_site_U_iso_or_equiv
_atom_site_adp_type
_atom_site_occupancy
C001   C     0.50067   0.08077   0.13996   1.00000  Uiso   1.00
C002   C     0.35426   0.16258   0.13951   1.00000  Uiso   1.00
C003   C     0.64709   0.16258   0.13950   1.00000  Uiso   1.00
C004   C     0.79629   0.91031   0.13930   1.00000  Uiso   1.00
C005   C     0.79624   0.07792   0.13889   1.00000  Uiso   1.00
C006   C     0.91686   0.19843   0.13859   1.00000  Uiso   1.00
C007   C     0.83266   0.34741   0.13941   1.00000  Uiso   1.00
C008   C     0.20510   0.07792   0.13889   1.00000  Uiso   1.00
C009   C     0.08449   0.19843   0.13859   1.00000  Uiso   1.00
C010   C     0.16868   0.34741   0.13941   1.00000  Uiso   1.00
C011   C     0.08704   0.49396   0.14027   1.00000  Uiso   1.00
C012   C     0.16886   0.64043   0.14027   1.00000  Uiso   1.00
C013   C     0.35427   0.82632   0.13989   1.00000  Uiso   1.00
C014   C     0.20505   0.91031   0.13930   1.00000  Uiso   1.00
C015   C     0.08460   0.78941   0.13951   1.00000  Uiso   1.00
C016   C     0.64707   0.82632   0.13989   1.00000  Uiso   1.00
C017   C     0.83248   0.64043   0.14027   1.00000  Uiso   1.00
C018   C     0.91674   0.78941   0.13951   1.00000  Uiso   1.00
C019   C     0.50067   0.90824   0.14012   1.00000  Uiso   1.00
C020   C     0.91430   0.49396   0.14027   1.00000  Uiso   1.00
N001   N     0.66836   0.32652   0.13966   1.00000  Uiso   1.00
N002   N     0.33298   0.32652   0.13966   1.00000  Uiso   1.00
N003   N     0.33362   0.66188   0.14003   1.00000  Uiso   1.00
N004   N     0.66772   0.66189   0.14002   1.00000  Uiso   1.00
N005   N     0.50069   0.50176   0.23785   1.00000  Uiso   1.00
Fe001  Fe    0.50067   0.49635   0.15437   1.00000  Uiso   1.00
H001   H     0.50067   0.61646   0.25889   1.00000  Uiso   1.00
loop_
_geom_bond_atom_site_label_1
_geom_bond_atom_site_label_2
_geom_bond_distance
_geom_bond_site_symmetry_2
_ccdc_geom_bond_type
C001   C002    1.408   .     D
C001   C003    1.408   .     S
C001   C019    1.448   1_545 S
C002   C008    1.440   .     S
C002   N002    1.388   .     S
C003   C005    1.440   .     D
C003   N001    1.388   .     S
C004   C005    1.407   1_565 S
C004   C016    1.438   .     D
C004   C018    1.433   .     S
C005   C004    1.407   1_545 S
C005   C006    1.431   .     S
C006   C007    1.437   .     S
C006   C009    1.407   1_655 D
C007   C020    1.408   .     S
C007   N001    1.390   .     D
C008   C009    1.431   .     S
C008   C014    1.407   1_545 D
C009   C006    1.407   1_455 D
C009   C010    1.437   .     S
C010   C011    1.408   .     S
C010   N002    1.390   .     D
C011   C012    1.408   .     S
C011   C020    1.450   1_455 D
C012   C015    1.437   .     S
C012   N003    1.395   .     D
C013   C014    1.438   .     S
C013   C019    1.408   .     D
C013   N003    1.391   .     S
C014   C008    1.407   1_565 D
C014   C015    1.433   .     S
C015   C018    1.409   1_455 D
C016   C019    1.408   .     S
C016   N004    1.391   .     S
C017   C018    1.437   .     S
C017   C020    1.408   .     S
C017   N004    1.395   .     D
C018   C015    1.409   1_655 D
C019   C001    1.448   1_565 S
C020   C011    1.450   1_655 D
N001   Fe001   2.025   .     S
N002   Fe001   2.025   .     S
N003   Fe001   1.995   .     S
N004   Fe001   1.995   .     S
N005   Fe001   1.673   .     S
N005   H001    1.051   .     S
