data_e-0.2-opt
_audit_creation_date              2024-12-22
_audit_creation_method            'Materials Studio'
_symmetry_space_group_name_H-M    'P1'
_symmetry_Int_Tables_number       1
_symmetry_cell_setting            triclinic
loop_
_symmetry_equiv_pos_as_xyz
  x,y,z
_cell_length_a                    8.3950
_cell_length_b                    8.3950
_cell_length_c                    20.0383
_cell_angle_alpha                 90.0000
_cell_angle_beta                  90.0000
_cell_angle_gamma                 90.0000
loop_
_atom_site_label
_atom_site_type_symbol
_atom_site_fract_x
_atom_site_fract_y
_atom_site_fract_z
_atom_site_U_iso_or_equiv
_atom_site_adp_type
_atom_site_occupancy
C001   C     0.50067   0.08080   0.14002   1.00000  Uiso   1.00
C002   C     0.35425   0.16260   0.13961   1.00000  Uiso   1.00
C003   C     0.64709   0.16260   0.13961   1.00000  Uiso   1.00
C004   C     0.79622   0.91039   0.13918   1.00000  Uiso   1.00
C005   C     0.79620   0.07802   0.13881   1.00000  Uiso   1.00
C006   C     0.91685   0.19862   0.13854   1.00000  Uiso   1.00
C007   C     0.83261   0.34755   0.13961   1.00000  Uiso   1.00
C008   C     0.20514   0.07801   0.13881   1.00000  Uiso   1.00
C009   C     0.08449   0.19862   0.13855   1.00000  Uiso   1.00
C010   C     0.16873   0.34755   0.13961   1.00000  Uiso   1.00
C011   C     0.08703   0.49411   0.14049   1.00000  Uiso   1.00
C012   C     0.16889   0.64060   0.14041   1.00000  Uiso   1.00
C013   C     0.35425   0.82634   0.13989   1.00000  Uiso   1.00
C014   C     0.20512   0.91039   0.13919   1.00000  Uiso   1.00
C015   C     0.08457   0.78950   0.13944   1.00000  Uiso   1.00
C016   C     0.64709   0.82633   0.13988   1.00000  Uiso   1.00
C017   C     0.83245   0.64060   0.14040   1.00000  Uiso   1.00
C018   C     0.91677   0.78950   0.13944   1.00000  Uiso   1.00
C019   C     0.50067   0.90830   0.14011   1.00000  Uiso   1.00
C020   C     0.91431   0.49410   0.14049   1.00000  Uiso   1.00
N001   N     0.66829   0.32660   0.14006   1.00000  Uiso   1.00
N002   N     0.33305   0.32661   0.14006   1.00000  Uiso   1.00
N003   N     0.33361   0.66195   0.14032   1.00000  Uiso   1.00
N004   N     0.66773   0.66195   0.14031   1.00000  Uiso   1.00
N005   N     0.50069   0.49973   0.23821   1.00000  Uiso   1.00
Fe001  Fe    0.50067   0.49569   0.15410   1.00000  Uiso   1.00
H001   H     0.50067   0.61690   0.25667   1.00000  Uiso   1.00
loop_
_geom_bond_atom_site_label_1
_geom_bond_atom_site_label_2
_geom_bond_distance
_geom_bond_site_symmetry_2
_ccdc_geom_bond_type
C001   C002    1.408   .     D
C001   C003    1.408   .     S
C001   C019    1.448   1_545 S
C002   C008    1.439   .     S
C002   N002    1.388   .     S
C003   C005    1.439   .     D
C003   N001    1.388   .     S
C004   C005    1.407   1_565 S
C004   C016    1.437   .     D
C004   C018    1.433   .     S
C005   C004    1.407   1_545 S
C005   C006    1.432   .     S
C006   C007    1.437   .     S
C006   C009    1.407   1_655 D
C007   C020    1.409   .     S
C007   N001    1.391   .     D
C008   C009    1.432   .     S
C008   C014    1.407   1_545 D
C009   C006    1.407   1_455 D
C009   C010    1.437   .     S
C010   C011    1.409   .     S
C010   N002    1.391   .     D
C011   C012    1.409   .     S
C011   C020    1.450   1_455 D
C012   C015    1.437   .     S
C012   N003    1.394   .     D
C013   C014    1.437   .     S
C013   C019    1.409   .     D
C013   N003    1.391   .     S
C014   C008    1.407   1_565 D
C014   C015    1.433   .     S
C015   C018    1.409   1_455 D
C016   C019    1.409   .     S
C016   N004    1.391   .     S
C017   C018    1.437   .     S
C017   C020    1.409   .     S
C017   N004    1.394   .     D
C018   C015    1.409   1_655 D
C019   C001    1.448   1_565 S
C020   C011    1.450   1_655 D
N001   Fe001   2.019   .     S
N002   Fe001   2.018   .     S
N003   Fe001   1.998   .     S
N004   Fe001   1.998   .     S
N005   Fe001   1.686   .     S
N005   H001    1.051   .     S
