data_e+0.8-opt
_audit_creation_date              2024-12-22
_audit_creation_method            'Materials Studio'
_symmetry_space_group_name_H-M    'P1'
_symmetry_Int_Tables_number       1
_symmetry_cell_setting            triclinic
loop_
_symmetry_equiv_pos_as_xyz
  x,y,z
_cell_length_a                    8.3950
_cell_length_b                    8.3950
_cell_length_c                    20.0383
_cell_angle_alpha                 90.0000
_cell_angle_beta                  90.0000
_cell_angle_gamma                 90.0000
loop_
_atom_site_label
_atom_site_type_symbol
_atom_site_fract_x
_atom_site_fract_y
_atom_site_fract_z
_atom_site_U_iso_or_equiv
_atom_site_adp_type
_atom_site_occupancy
C001   C     0.50067   0.08067   0.14004   1.00000  Uiso   1.00
C002   C     0.35429   0.16251   0.13966   1.00000  Uiso   1.00
C003   C     0.64706   0.16251   0.13966   1.00000  Uiso   1.00
C004   C     0.79627   0.91064   0.13908   1.00000  Uiso   1.00
C005   C     0.79623   0.07777   0.13875   1.00000  Uiso   1.00
C006   C     0.91707   0.19868   0.13858   1.00000  Uiso   1.00
C007   C     0.83259   0.34764   0.13985   1.00000  Uiso   1.00
C008   C     0.20511   0.07777   0.13875   1.00000  Uiso   1.00
C009   C     0.08427   0.19868   0.13858   1.00000  Uiso   1.00
C010   C     0.16874   0.34764   0.13985   1.00000  Uiso   1.00
C011   C     0.08702   0.49415   0.14072   1.00000  Uiso   1.00
C012   C     0.16887   0.64065   0.14051   1.00000  Uiso   1.00
C013   C     0.35433   0.82628   0.13986   1.00000  Uiso   1.00
C014   C     0.20508   0.91064   0.13908   1.00000  Uiso   1.00
C015   C     0.08433   0.78954   0.13940   1.00000  Uiso   1.00
C016   C     0.64701   0.82628   0.13985   1.00000  Uiso   1.00
C017   C     0.83248   0.64064   0.14050   1.00000  Uiso   1.00
C018   C     0.91701   0.78954   0.13939   1.00000  Uiso   1.00
C019   C     0.50067   0.90827   0.14008   1.00000  Uiso   1.00
C020   C     0.91431   0.49415   0.14072   1.00000  Uiso   1.00
N001   N     0.66842   0.32630   0.14058   1.00000  Uiso   1.00
N002   N     0.33292   0.32631   0.14058   1.00000  Uiso   1.00
N003   N     0.33340   0.66219   0.14067   1.00000  Uiso   1.00
N004   N     0.66794   0.66219   0.14066   1.00000  Uiso   1.00
N005   N     0.50069   0.49894   0.23847   1.00000  Uiso   1.00
Fe001  Fe    0.50067   0.49508   0.15364   1.00000  Uiso   1.00
H001   H     0.50067   0.61826   0.25430   1.00000  Uiso   1.00
loop_
_geom_bond_atom_site_label_1
_geom_bond_atom_site_label_2
_geom_bond_distance
_geom_bond_site_symmetry_2
_ccdc_geom_bond_type
C001   C002    1.408   .     D
C001   C003    1.408   .     S
C001   C019    1.447   1_545 S
C002   C008    1.440   .     S
C002   N002    1.387   .     S
C003   C005    1.440   .     D
C003   N001    1.387   .     S
C004   C005    1.403   1_565 S
C004   C016    1.439   .     D
C004   C018    1.436   .     S
C005   C004    1.403   1_545 S
C005   C006    1.435   .     S
C006   C007    1.438   .     S
C006   C009    1.404   1_655 D
C007   C020    1.409   .     S
C007   N001    1.390   .     D
C008   C009    1.435   .     S
C008   C014    1.403   1_545 D
C009   C006    1.404   1_455 D
C009   C010    1.438   .     S
C010   C011    1.408   .     S
C010   N002    1.390   .     D
C011   C012    1.409   .     S
C011   C020    1.450   1_455 D
C012   C015    1.438   .     S
C012   N003    1.393   .     D
C013   C014    1.439   .     S
C013   C019    1.408   .     D
C013   N003    1.389   .     S
C014   C008    1.403   1_565 D
C014   C015    1.436   .     S
C015   C018    1.405   1_455 D
C016   C019    1.408   .     S
C016   N004    1.389   .     S
C017   C018    1.438   .     S
C017   C020    1.409   .     S
C017   N004    1.393   .     D
C018   C015    1.405   1_655 D
C019   C001    1.447   1_565 S
C020   C011    1.450   1_655 D
N001   Fe001   2.015   .     S
N002   Fe001   2.015   .     S
N003   Fe001   2.002   .     S
N004   Fe001   2.002   .     S
N005   Fe001   1.700   .     S
N005   H001    1.051   .     S
