data_e-0.6-opt
_audit_creation_date              2024-12-22
_audit_creation_method            'Materials Studio'
_symmetry_space_group_name_H-M    'P1'
_symmetry_Int_Tables_number       1
_symmetry_cell_setting            triclinic
loop_
_symmetry_equiv_pos_as_xyz
  x,y,z
_cell_length_a                    8.3950
_cell_length_b                    8.3950
_cell_length_c                    20.0383
_cell_angle_alpha                 90.0000
_cell_angle_beta                  90.0000
_cell_angle_gamma                 90.0000
loop_
_atom_site_label
_atom_site_type_symbol
_atom_site_fract_x
_atom_site_fract_y
_atom_site_fract_z
_atom_site_U_iso_or_equiv
_atom_site_adp_type
_atom_site_occupancy
C001   C     0.50067   0.08080   0.13998   1.00000  Uiso   1.00
C002   C     0.35425   0.16262   0.13955   1.00000  Uiso   1.00
C003   C     0.64709   0.16262   0.13954   1.00000  Uiso   1.00
C004   C     0.79625   0.91025   0.13923   1.00000  Uiso   1.00
C005   C     0.79622   0.07807   0.13884   1.00000  Uiso   1.00
C006   C     0.91678   0.19851   0.13853   1.00000  Uiso   1.00
C007   C     0.83263   0.34744   0.13947   1.00000  Uiso   1.00
C008   C     0.20513   0.07807   0.13884   1.00000  Uiso   1.00
C009   C     0.08456   0.19851   0.13854   1.00000  Uiso   1.00
C010   C     0.16871   0.34744   0.13947   1.00000  Uiso   1.00
C011   C     0.08702   0.49403   0.14036   1.00000  Uiso   1.00
C012   C     0.16889   0.64050   0.14033   1.00000  Uiso   1.00
C013   C     0.35422   0.82635   0.13988   1.00000  Uiso   1.00
C014   C     0.20510   0.91025   0.13923   1.00000  Uiso   1.00
C015   C     0.08468   0.78946   0.13946   1.00000  Uiso   1.00
C016   C     0.64712   0.82635   0.13988   1.00000  Uiso   1.00
C017   C     0.83245   0.64050   0.14032   1.00000  Uiso   1.00
C018   C     0.91666   0.78946   0.13946   1.00000  Uiso   1.00
C019   C     0.50067   0.90829   0.14011   1.00000  Uiso   1.00
C020   C     0.91432   0.49402   0.14036   1.00000  Uiso   1.00
N001   N     0.66825   0.32664   0.13976   1.00000  Uiso   1.00
N002   N     0.33309   0.32665   0.13976   1.00000  Uiso   1.00
N003   N     0.33368   0.66180   0.14011   1.00000  Uiso   1.00
N004   N     0.66766   0.66180   0.14010   1.00000  Uiso   1.00
N005   N     0.50070   0.50090   0.23809   1.00000  Uiso   1.00
Fe001  Fe    0.50067   0.49609   0.15439   1.00000  Uiso   1.00
H001   H     0.50067   0.61654   0.25824   1.00000  Uiso   1.00
loop_
_geom_bond_atom_site_label_1
_geom_bond_atom_site_label_2
_geom_bond_distance
_geom_bond_site_symmetry_2
_ccdc_geom_bond_type
C001   C002    1.408   .     D
C001   C003    1.408   .     S
C001   C019    1.448   1_545 S
C002   C008    1.439   .     S
C002   N002    1.388   .     S
C003   C005    1.439   .     D
C003   N001    1.388   .     S
C004   C005    1.409   1_565 S
C004   C016    1.436   .     D
C004   C018    1.432   .     S
C005   C004    1.409   1_545 S
C005   C006    1.431   .     S
C006   C007    1.436   .     S
C006   C009    1.408   1_655 D
C007   C020    1.409   .     S
C007   N001    1.391   .     D
C008   C009    1.431   .     S
C008   C014    1.409   1_545 D
C009   C006    1.408   1_455 D
C009   C010    1.436   .     S
C010   C011    1.409   .     S
C010   N002    1.391   .     D
C011   C012    1.409   .     S
C011   C020    1.450   1_455 D
C012   C015    1.437   .     S
C012   N003    1.395   .     D
C013   C014    1.436   .     S
C013   C019    1.409   .     D
C013   N003    1.392   .     S
C014   C008    1.409   1_565 D
C014   C015    1.432   .     S
C015   C018    1.411   1_455 D
C016   C019    1.409   .     S
C016   N004    1.392   .     S
C017   C018    1.437   .     S
C017   C020    1.409   .     S
C017   N004    1.395   .     D
C018   C015    1.411   1_655 D
C019   C001    1.448   1_565 S
C020   C011    1.450   1_655 D
N001   Fe001   2.022   .     S
N002   Fe001   2.022   .     S
N003   Fe001   1.996   .     S
N004   Fe001   1.996   .     S
N005   Fe001   1.678   .     S
N005   H001    1.051   .     S
