data_e-0.4-opt
_audit_creation_date              2024-12-22
_audit_creation_method            'Materials Studio'
_symmetry_space_group_name_H-M    'P1'
_symmetry_Int_Tables_number       1
_symmetry_cell_setting            triclinic
loop_
_symmetry_equiv_pos_as_xyz
  x,y,z
_cell_length_a                    12.4727
_cell_length_b                    12.7357
_cell_length_c                    19.9866
_cell_angle_alpha                 90.0000
_cell_angle_beta                  90.0000
_cell_angle_gamma                 90.0000
loop_
_atom_site_label
_atom_site_type_symbol
_atom_site_fract_x
_atom_site_fract_y
_atom_site_fract_z
_atom_site_U_iso_or_equiv
_atom_site_adp_type
_atom_site_occupancy
C001   C     0.05237   0.04524   0.15516   1.00000  Uiso   1.00
C002   C     0.15282   0.10008   0.15481   1.00000  Uiso   1.00
C003   C     0.15219   0.21143   0.15369   1.00000  Uiso   1.00
C004   C     0.05237   0.26654   0.15301   1.00000  Uiso   1.00
C005   C     0.25361   0.04572   0.15549   1.00000  Uiso   1.00
C006   C     0.35372   0.10190   0.15548   1.00000  Uiso   1.00
C007   C     0.35268   0.21449   0.15474   1.00000  Uiso   1.00
C008   C     0.25138   0.26712   0.15365   1.00000  Uiso   1.00
C009   C     0.45384   0.04648   0.15636   1.00000  Uiso   1.00
C010   C     0.55242   0.10545   0.15655   1.00000  Uiso   1.00
C011   C     0.55242   0.22006   0.15679   1.00000  Uiso   1.00
C012   C     0.45059   0.27511   0.15611   1.00000  Uiso   1.00
C013   C     0.65094   0.04646   0.15630   1.00000  Uiso   1.00
C014   C     0.75105   0.10188   0.15532   1.00000  Uiso   1.00
C015   C     0.75206   0.21448   0.15473   1.00000  Uiso   1.00
C016   C     0.65419   0.27513   0.15620   1.00000  Uiso   1.00
C017   C     0.85112   0.04567   0.15530   1.00000  Uiso   1.00
C018   C     0.95193   0.10006   0.15467   1.00000  Uiso   1.00
C019   C     0.95252   0.21142   0.15361   1.00000  Uiso   1.00
C020   C     0.85338   0.26712   0.15370   1.00000  Uiso   1.00
C021   C     0.05237   0.37800   0.15240   1.00000  Uiso   1.00
C022   C     0.15072   0.43403   0.15250   1.00000  Uiso   1.00
C023   C     0.15070   0.54534   0.15305   1.00000  Uiso   1.00
C024   C     0.05239   0.60137   0.15348   1.00000  Uiso   1.00
C025   C     0.24954   0.37848   0.15317   1.00000  Uiso   1.00
C026   C     0.34745   0.43349   0.15480   1.00000  Uiso   1.00
C027   C     0.34746   0.54583   0.15542   1.00000  Uiso   1.00
C028   C     0.24959   0.60088   0.15423   1.00000  Uiso   1.00
C029   C     0.75738   0.43356   0.15564   1.00000  Uiso   1.00
C030   C     0.75731   0.54582   0.15687   1.00000  Uiso   1.00
C031   C     0.85521   0.37849   0.15362   1.00000  Uiso   1.00
C032   C     0.95408   0.43405   0.15281   1.00000  Uiso   1.00
C033   C     0.95403   0.54536   0.15340   1.00000  Uiso   1.00
C034   C     0.85517   0.60087   0.15507   1.00000  Uiso   1.00
C035   C     0.05239   0.71281   0.15474   1.00000  Uiso   1.00
C036   C     0.15225   0.76792   0.15527   1.00000  Uiso   1.00
C037   C     0.05238   0.93410   0.15574   1.00000  Uiso   1.00
C038   C     0.25140   0.71225   0.15516   1.00000  Uiso   1.00
C039   C     0.35274   0.76490   0.15610   1.00000  Uiso   1.00
C040   C     0.35372   0.87750   0.15632   1.00000  Uiso   1.00
C041   C     0.25363   0.93366   0.15597   1.00000  Uiso   1.00
C042   C     0.45062   0.70433   0.15763   1.00000  Uiso   1.00
C043   C     0.55240   0.75931   0.15853   1.00000  Uiso   1.00
C044   C     0.55238   0.87391   0.15752   1.00000  Uiso   1.00
C045   C     0.45386   0.93290   0.15680   1.00000  Uiso   1.00
C046   C     0.65408   0.70416   0.15859   1.00000  Uiso   1.00
C047   C     0.75197   0.76473   0.15673   1.00000  Uiso   1.00
C048   C     0.75101   0.87738   0.15645   1.00000  Uiso   1.00
C049   C     0.65094   0.93286   0.15685   1.00000  Uiso   1.00
C050   C     0.85336   0.71221   0.15585   1.00000  Uiso   1.00
C051   C     0.95254   0.76789   0.15553   1.00000  Uiso   1.00
C052   C     0.85112   0.93359   0.15591   1.00000  Uiso   1.00
C053   C     0.15283   0.87928   0.15583   1.00000  Uiso   1.00
C054   C     0.95194   0.87926   0.15586   1.00000  Uiso   1.00
N001   N     0.44548   0.38394   0.15666   1.00000  Uiso   1.00
N002   N     0.44553   0.59539   0.15807   1.00000  Uiso   1.00
N003   N     0.65933   0.38406   0.15699   1.00000  Uiso   1.00
N004   N     0.65903   0.59508   0.16028   1.00000  Uiso   1.00
N005   N     0.57014   0.52864   0.31226   1.00000  Uiso   1.00
Fe001  Fe    0.55201   0.48937   0.17076   1.00000  Uiso   1.00
O001   O     0.57133   0.47564   0.37440   1.00000  Uiso   1.00
O002   O     0.59407   0.62208   0.30914   1.00000  Uiso   1.00
O003   O     0.54496   0.46531   0.26565   1.00000  Uiso   1.00
H001   H     0.59111   0.53136   0.40630   1.00000  Uiso   1.00
loop_
_geom_bond_atom_site_label_1
_geom_bond_atom_site_label_2
_geom_bond_distance
_geom_bond_site_symmetry_2
_ccdc_geom_bond_type
C001   C002    1.434   .     D
C001   C018    1.434   1_455 S
C001   C037    1.416   1_545 S
C002   C003    1.418   .     S
C002   C005    1.435   .     S
C003   C004    1.429   .     D
C003   C008    1.426   .     S
C004   C019    1.430   1_455 S
C004   C021    1.420   .     S
C005   C006    1.439   .     S
C005   C041    1.427   1_545 D
C006   C007    1.434   .     S
C006   C009    1.435   .     D
C007   C008    1.430   .     S
C007   C012    1.445   .     D
C008   C025    1.419   .     D
C009   C010    1.441   .     S
C009   C045    1.447   1_545 S
C010   C011    1.460   .     D
C010   C013    1.440   .     S
C011   C012    1.451   .     S
C011   C016    1.450   .     S
C012   N001    1.388   .     S
C013   C014    1.434   .     D
C013   C049    1.447   1_545 S
C014   C015    1.434   .     S
C014   C017    1.439   .     S
C015   C016    1.445   .     S
C015   C020    1.431   .     D
C016   N003    1.389   .     D
C017   C018    1.436   .     S
C017   C052    1.427   1_545 D
C018   C001    1.434   1_655 S
C018   C019    1.418   .     D
C019   C004    1.430   1_655 S
C019   C020    1.426   .     S
C020   C031    1.419   .     S
C021   C022    1.419   .     D
C021   C032    1.419   1_455 S
C022   C023    1.418   .     S
C022   C025    1.421   .     S
C023   C024    1.419   .     D
C023   C028    1.422   .     S
C024   C033    1.419   1_455 S
C024   C035    1.419   .     S
C025   C026    1.408   .     S
C026   C027    1.431   .     S
C026   N001    1.376   .     D
C027   C028    1.408   .     S
C027   N002    1.377   .     D
C028   C038    1.419   .     D
C029   C030    1.430   .     S
C029   C031    1.408   .     D
C029   N003    1.376   .     S
C030   C034    1.408   .     S
C030   N004    1.379   .     D
C031   C032    1.422   .     S
C032   C021    1.419   1_655 S
C032   C033    1.418   .     D
C033   C024    1.419   1_655 S
C033   C034    1.422   .     S
C034   C050    1.418   .     D
C035   C036    1.430   .     S
C035   C051    1.430   1_455 D
C036   C038    1.426   .     S
C036   C053    1.418   .     D
C037   C001    1.416   1_565 S
C037   C053    1.434   .     S
C037   C054    1.434   1_455 D
C038   C039    1.431   .     S
C039   C040    1.434   .     S
C039   C042    1.444   .     D
C040   C041    1.439   .     S
C040   C045    1.435   .     D
C041   C005    1.427   1_565 D
C041   C053    1.435   .     S
C042   C043    1.450   .     S
C042   N002    1.389   .     S
C043   C044    1.460   .     S
C043   C046    1.450   .     D
C044   C045    1.440   .     S
C044   C049    1.441   .     D
C045   C009    1.447   1_565 S
C046   C047    1.445   .     S
C046   N004    1.391   .     S
C047   C048    1.435   .     D
C047   C050    1.431   .     S
C048   C049    1.434   .     S
C048   C052    1.439   .     S
C049   C013    1.447   1_565 S
C050   C051    1.426   .     S
C051   C035    1.430   1_655 D
C051   C054    1.418   .     S
C052   C017    1.427   1_565 D
C052   C054    1.435   .     S
C054   C037    1.434   1_655 D
N001   Fe001   1.910   .     S
N002   Fe001   1.911   .     S
N003   Fe001   1.915   .     S
N004   Fe001   1.907   .     S
N005   O001    1.414   .     S
N005   O002    1.228   .     D
N005   O003    1.272   .     S
Fe001  O003    1.923   .     S
O001   H001    0.985   .     S
