data_e+1-opt
_audit_creation_date              2024-12-22
_audit_creation_method            'Materials Studio'
_symmetry_space_group_name_H-M    'P1'
_symmetry_Int_Tables_number       1
_symmetry_cell_setting            triclinic
loop_
_symmetry_equiv_pos_as_xyz
  x,y,z
_cell_length_a                    12.4727
_cell_length_b                    12.7357
_cell_length_c                    19.9866
_cell_angle_alpha                 90.0000
_cell_angle_beta                  90.0000
_cell_angle_gamma                 90.0000
loop_
_atom_site_label
_atom_site_type_symbol
_atom_site_fract_x
_atom_site_fract_y
_atom_site_fract_z
_atom_site_U_iso_or_equiv
_atom_site_adp_type
_atom_site_occupancy
C001   C     0.05242   0.04533   0.15560   1.00000  Uiso   1.00
C002   C     0.15275   0.10012   0.15526   1.00000  Uiso   1.00
C003   C     0.15213   0.21140   0.15408   1.00000  Uiso   1.00
C004   C     0.05242   0.26651   0.15333   1.00000  Uiso   1.00
C005   C     0.25360   0.04563   0.15585   1.00000  Uiso   1.00
C006   C     0.35372   0.10174   0.15559   1.00000  Uiso   1.00
C007   C     0.35261   0.21440   0.15466   1.00000  Uiso   1.00
C008   C     0.25149   0.26711   0.15380   1.00000  Uiso   1.00
C009   C     0.45373   0.04649   0.15638   1.00000  Uiso   1.00
C010   C     0.55249   0.10558   0.15641   1.00000  Uiso   1.00
C011   C     0.55251   0.21981   0.15646   1.00000  Uiso   1.00
C012   C     0.45045   0.27488   0.15565   1.00000  Uiso   1.00
C013   C     0.65123   0.04649   0.15620   1.00000  Uiso   1.00
C014   C     0.75112   0.10182   0.15519   1.00000  Uiso   1.00
C015   C     0.75215   0.21459   0.15438   1.00000  Uiso   1.00
C016   C     0.65430   0.27508   0.15559   1.00000  Uiso   1.00
C017   C     0.85123   0.04564   0.15538   1.00000  Uiso   1.00
C018   C     0.95209   0.10012   0.15493   1.00000  Uiso   1.00
C019   C     0.95269   0.21143   0.15377   1.00000  Uiso   1.00
C020   C     0.85335   0.26722   0.15347   1.00000  Uiso   1.00
C021   C     0.05246   0.37818   0.15262   1.00000  Uiso   1.00
C022   C     0.15075   0.43412   0.15278   1.00000  Uiso   1.00
C023   C     0.15077   0.54527   0.15337   1.00000  Uiso   1.00
C024   C     0.05247   0.60124   0.15374   1.00000  Uiso   1.00
C025   C     0.24978   0.37836   0.15314   1.00000  Uiso   1.00
C026   C     0.34773   0.43321   0.15408   1.00000  Uiso   1.00
C027   C     0.34781   0.54604   0.15463   1.00000  Uiso   1.00
C028   C     0.24980   0.60099   0.15425   1.00000  Uiso   1.00
C029   C     0.75728   0.43349   0.15489   1.00000  Uiso   1.00
C030   C     0.75726   0.54605   0.15634   1.00000  Uiso   1.00
C031   C     0.85513   0.37844   0.15319   1.00000  Uiso   1.00
C032   C     0.95417   0.43417   0.15276   1.00000  Uiso   1.00
C033   C     0.95415   0.54530   0.15338   1.00000  Uiso   1.00
C034   C     0.85510   0.60103   0.15477   1.00000  Uiso   1.00
C035   C     0.05247   0.71288   0.15509   1.00000  Uiso   1.00
C036   C     0.15218   0.76798   0.15569   1.00000  Uiso   1.00
C037   C     0.05244   0.93408   0.15619   1.00000  Uiso   1.00
C038   C     0.25159   0.71221   0.15532   1.00000  Uiso   1.00
C039   C     0.35276   0.76494   0.15607   1.00000  Uiso   1.00
C040   C     0.35378   0.87764   0.15651   1.00000  Uiso   1.00
C041   C     0.25363   0.93375   0.15638   1.00000  Uiso   1.00
C042   C     0.45062   0.70450   0.15702   1.00000  Uiso   1.00
C043   C     0.55254   0.75957   0.15822   1.00000  Uiso   1.00
C044   C     0.55249   0.87377   0.15741   1.00000  Uiso   1.00
C045   C     0.45374   0.93291   0.15684   1.00000  Uiso   1.00
C046   C     0.65432   0.70424   0.15825   1.00000  Uiso   1.00
C047   C     0.75212   0.76473   0.15651   1.00000  Uiso   1.00
C048   C     0.75111   0.87751   0.15634   1.00000  Uiso   1.00
C049   C     0.65122   0.93287   0.15678   1.00000  Uiso   1.00
C050   C     0.85338   0.71222   0.15573   1.00000  Uiso   1.00
C051   C     0.95270   0.76797   0.15571   1.00000  Uiso   1.00
C052   C     0.85123   0.93373   0.15598   1.00000  Uiso   1.00
C053   C     0.15279   0.87928   0.15630   1.00000  Uiso   1.00
C054   C     0.95212   0.87928   0.15610   1.00000  Uiso   1.00
N001   N     0.44539   0.38351   0.15608   1.00000  Uiso   1.00
N002   N     0.44546   0.59570   0.15690   1.00000  Uiso   1.00
N003   N     0.65940   0.38406   0.15643   1.00000  Uiso   1.00
N004   N     0.65924   0.59525   0.16012   1.00000  Uiso   1.00
N005   N     0.56458   0.52966   0.31249   1.00000  Uiso   1.00
Fe001  Fe    0.55199   0.48905   0.17074   1.00000  Uiso   1.00
O001   O     0.57574   0.47198   0.37596   1.00000  Uiso   1.00
O002   O     0.58977   0.62374   0.31184   1.00000  Uiso   1.00
O003   O     0.54393   0.46659   0.26511   1.00000  Uiso   1.00
H001   H     0.59371   0.53027   0.40601   1.00000  Uiso   1.00
loop_
_geom_bond_atom_site_label_1
_geom_bond_atom_site_label_2
_geom_bond_distance
_geom_bond_site_symmetry_2
_ccdc_geom_bond_type
C001   C002    1.433   .     D
C001   C018    1.433   1_455 S
C001   C037    1.417   1_545 S
C002   C003    1.417   .     S
C002   C005    1.437   .     S
C003   C004    1.428   .     D
C003   C008    1.428   .     S
C004   C019    1.428   1_455 S
C004   C021    1.422   .     S
C005   C006    1.439   .     S
C005   C041    1.425   1_545 D
C006   C007    1.435   .     S
C006   C009    1.432   .     D
C007   C008    1.429   .     S
C007   C012    1.443   .     D
C008   C025    1.417   .     D
C009   C010    1.443   .     S
C009   C045    1.447   1_545 S
C010   C011    1.455   .     D
C010   C013    1.443   .     S
C011   C012    1.453   .     S
C011   C016    1.452   .     S
C012   N001    1.385   .     S
C013   C014    1.432   .     D
C013   C049    1.447   1_545 S
C014   C015    1.436   .     S
C014   C017    1.439   .     S
C015   C016    1.443   .     S
C015   C020    1.429   .     D
C016   N003    1.390   .     D
C017   C018    1.437   .     S
C017   C052    1.425   1_545 D
C018   C001    1.433   1_655 S
C018   C019    1.418   .     D
C019   C004    1.428   1_655 S
C019   C020    1.428   .     S
C020   C031    1.417   .     S
C021   C022    1.418   .     D
C021   C032    1.418   1_455 S
C022   C023    1.416   .     S
C022   C025    1.425   .     S
C023   C024    1.418   .     D
C023   C028    1.425   .     S
C024   C033    1.418   1_455 S
C024   C035    1.422   .     S
C025   C026    1.408   .     S
C026   C027    1.437   .     S
C026   N001    1.373   .     D
C027   C028    1.409   .     S
C027   N002    1.373   .     D
C028   C038    1.417   .     D
C029   C030    1.434   .     S
C029   C031    1.408   .     D
C029   N003    1.374   .     S
C030   C034    1.407   .     S
C030   N004    1.376   .     D
C031   C032    1.425   .     S
C032   C021    1.418   1_655 S
C032   C033    1.415   .     D
C033   C024    1.418   1_655 S
C033   C034    1.425   .     S
C034   C050    1.416   .     D
C035   C036    1.428   .     S
C035   C051    1.429   1_455 D
C036   C038    1.429   .     S
C036   C053    1.418   .     D
C037   C001    1.417   1_565 S
C037   C053    1.433   .     S
C037   C054    1.433   1_455 D
C038   C039    1.429   .     S
C039   C040    1.435   .     S
C039   C042    1.443   .     D
C040   C041    1.439   .     S
C040   C045    1.432   .     D
C041   C005    1.425   1_565 D
C041   C053    1.436   .     S
C042   C043    1.452   .     S
C042   N002    1.387   .     S
C043   C044    1.455   .     S
C043   C046    1.452   .     D
C044   C045    1.444   .     S
C044   C049    1.443   .     D
C045   C009    1.447   1_565 S
C046   C047    1.443   .     S
C046   N004    1.390   .     S
C047   C048    1.436   .     D
C047   C050    1.429   .     S
C048   C049    1.432   .     S
C048   C052    1.439   .     S
C049   C013    1.447   1_565 S
C050   C051    1.428   .     S
C051   C035    1.429   1_655 D
C051   C054    1.418   .     S
C052   C017    1.425   1_565 D
C052   C054    1.437   .     S
C054   C037    1.433   1_655 D
N001   Fe001   1.913   .     S
N002   Fe001   1.920   .     S
N003   Fe001   1.914   .     S
N004   Fe001   1.914   .     S
N005   O001    1.472   .     S
N005   O002    1.239   .     D
N005   O003    1.268   .     S
Fe001  O003    1.910   .     S
O001   H001    0.981   .     S
