data_e-1-opt
_audit_creation_date              2024-12-22
_audit_creation_method            'Materials Studio'
_symmetry_space_group_name_H-M    'P1'
_symmetry_Int_Tables_number       1
_symmetry_cell_setting            triclinic
loop_
_symmetry_equiv_pos_as_xyz
  x,y,z
_cell_length_a                    12.4727
_cell_length_b                    12.7357
_cell_length_c                    19.9866
_cell_angle_alpha                 90.0000
_cell_angle_beta                  90.0000
_cell_angle_gamma                 90.0000
loop_
_atom_site_label
_atom_site_type_symbol
_atom_site_fract_x
_atom_site_fract_y
_atom_site_fract_z
_atom_site_U_iso_or_equiv
_atom_site_adp_type
_atom_site_occupancy
C001   C     0.05248   0.04559   0.15604   1.00000  Uiso   1.00
C002   C     0.15286   0.10038   0.15569   1.00000  Uiso   1.00
C003   C     0.15226   0.21170   0.15455   1.00000  Uiso   1.00
C004   C     0.05249   0.26680   0.15369   1.00000  Uiso   1.00
C005   C     0.25372   0.04596   0.15619   1.00000  Uiso   1.00
C006   C     0.35383   0.10214   0.15582   1.00000  Uiso   1.00
C007   C     0.35280   0.21487   0.15503   1.00000  Uiso   1.00
C008   C     0.25151   0.26744   0.15438   1.00000  Uiso   1.00
C009   C     0.45382   0.04682   0.15640   1.00000  Uiso   1.00
C010   C     0.55249   0.10588   0.15616   1.00000  Uiso   1.00
C011   C     0.55249   0.22027   0.15599   1.00000  Uiso   1.00
C012   C     0.45061   0.27543   0.15576   1.00000  Uiso   1.00
C013   C     0.65115   0.04681   0.15601   1.00000  Uiso   1.00
C014   C     0.75114   0.10214   0.15518   1.00000  Uiso   1.00
C015   C     0.75216   0.21486   0.15408   1.00000  Uiso   1.00
C016   C     0.65435   0.27542   0.15486   1.00000  Uiso   1.00
C017   C     0.85125   0.04595   0.15564   1.00000  Uiso   1.00
C018   C     0.95211   0.10037   0.15533   1.00000  Uiso   1.00
C019   C     0.95271   0.21170   0.15403   1.00000  Uiso   1.00
C020   C     0.85347   0.26744   0.15331   1.00000  Uiso   1.00
C021   C     0.05250   0.37836   0.15293   1.00000  Uiso   1.00
C022   C     0.15075   0.43441   0.15344   1.00000  Uiso   1.00
C023   C     0.15077   0.54558   0.15392   1.00000  Uiso   1.00
C024   C     0.05250   0.60162   0.15382   1.00000  Uiso   1.00
C025   C     0.24974   0.37871   0.15406   1.00000  Uiso   1.00
C026   C     0.34749   0.43379   0.15530   1.00000  Uiso   1.00
C027   C     0.34751   0.54612   0.15641   1.00000  Uiso   1.00
C028   C     0.24980   0.60124   0.15532   1.00000  Uiso   1.00
C029   C     0.75749   0.43380   0.15347   1.00000  Uiso   1.00
C030   C     0.75748   0.54613   0.15468   1.00000  Uiso   1.00
C031   C     0.85526   0.37870   0.15262   1.00000  Uiso   1.00
C032   C     0.95425   0.43441   0.15255   1.00000  Uiso   1.00
C033   C     0.95424   0.54558   0.15302   1.00000  Uiso   1.00
C034   C     0.85519   0.60126   0.15389   1.00000  Uiso   1.00
C035   C     0.05249   0.71316   0.15515   1.00000  Uiso   1.00
C036   C     0.15228   0.76823   0.15611   1.00000  Uiso   1.00
C037   C     0.05248   0.93435   0.15654   1.00000  Uiso   1.00
C038   C     0.25153   0.71251   0.15621   1.00000  Uiso   1.00
C039   C     0.35288   0.76505   0.15693   1.00000  Uiso   1.00
C040   C     0.35386   0.87781   0.15691   1.00000  Uiso   1.00
C041   C     0.25372   0.93398   0.15673   1.00000  Uiso   1.00
C042   C     0.45072   0.70459   0.15822   1.00000  Uiso   1.00
C043   C     0.55251   0.75974   0.15825   1.00000  Uiso   1.00
C044   C     0.55249   0.87414   0.15737   1.00000  Uiso   1.00
C045   C     0.45383   0.93318   0.15699   1.00000  Uiso   1.00
C046   C     0.65427   0.70457   0.15742   1.00000  Uiso   1.00
C047   C     0.75208   0.76503   0.15597   1.00000  Uiso   1.00
C048   C     0.75111   0.87779   0.15623   1.00000  Uiso   1.00
C049   C     0.65114   0.93317   0.15660   1.00000  Uiso   1.00
C050   C     0.85344   0.71251   0.15514   1.00000  Uiso   1.00
C051   C     0.95269   0.76823   0.15558   1.00000  Uiso   1.00
C052   C     0.85124   0.93397   0.15615   1.00000  Uiso   1.00
C053   C     0.15287   0.87957   0.15668   1.00000  Uiso   1.00
C054   C     0.95210   0.87957   0.15629   1.00000  Uiso   1.00
N001   N     0.44567   0.38445   0.15614   1.00000  Uiso   1.00
N002   N     0.44594   0.59534   0.15908   1.00000  Uiso   1.00
N003   N     0.65933   0.38445   0.15460   1.00000  Uiso   1.00
N004   N     0.65907   0.59532   0.15794   1.00000  Uiso   1.00
N005   N     0.56970   0.52547   0.31283   1.00000  Uiso   1.00
Fe001  Fe    0.55271   0.48980   0.16910   1.00000  Uiso   1.00
O001   O     0.57754   0.47181   0.37273   1.00000  Uiso   1.00
O002   O     0.57689   0.62092   0.30964   1.00000  Uiso   1.00
O003   O     0.55520   0.46054   0.26511   1.00000  Uiso   1.00
H001   H     0.58510   0.52628   0.40785   1.00000  Uiso   1.00
loop_
_geom_bond_atom_site_label_1
_geom_bond_atom_site_label_2
_geom_bond_distance
_geom_bond_site_symmetry_2
_ccdc_geom_bond_type
C001   C002    1.433   .     D
C001   C018    1.433   1_455 S
C001   C037    1.417   1_545 S
C002   C003    1.418   .     S
C002   C005    1.436   .     S
C003   C004    1.429   .     D
C003   C008    1.427   .     S
C004   C019    1.429   1_455 S
C004   C021    1.421   .     S
C005   C006    1.439   .     S
C005   C041    1.426   1_545 D
C006   C007    1.436   .     S
C006   C009    1.433   .     D
C007   C008    1.430   .     S
C007   C012    1.443   .     D
C008   C025    1.417   .     D
C009   C010    1.442   .     S
C009   C045    1.447   1_545 S
C010   C011    1.457   .     D
C010   C013    1.442   .     S
C011   C012    1.452   .     S
C011   C016    1.452   .     S
C012   N001    1.390   .     S
C013   C014    1.432   .     D
C013   C049    1.447   1_545 S
C014   C015    1.436   .     S
C014   C017    1.439   .     S
C015   C016    1.443   .     S
C015   C020    1.430   .     D
C016   N003    1.390   .     D
C017   C018    1.436   .     S
C017   C052    1.426   1_545 D
C018   C001    1.433   1_655 S
C018   C019    1.418   .     D
C019   C004    1.429   1_655 S
C019   C020    1.427   .     S
C020   C031    1.417   .     S
C021   C022    1.418   .     D
C021   C032    1.418   1_455 S
C022   C023    1.416   .     S
C022   C025    1.424   .     S
C023   C024    1.418   .     D
C023   C028    1.424   .     S
C024   C033    1.418   1_455 S
C024   C035    1.421   .     S
C025   C026    1.407   .     S
C026   C027    1.431   .     S
C026   N001    1.377   .     D
C027   C028    1.407   .     S
C027   N002    1.379   .     D
C028   C038    1.417   .     D
C029   C030    1.431   .     S
C029   C031    1.407   .     D
C029   N003    1.376   .     S
C030   C034    1.407   .     S
C030   N004    1.380   .     D
C031   C032    1.424   .     S
C032   C021    1.418   1_655 S
C032   C033    1.416   .     D
C033   C024    1.418   1_655 S
C033   C034    1.424   .     S
C034   C050    1.417   .     D
C035   C036    1.429   .     S
C035   C051    1.429   1_455 D
C036   C038    1.427   .     S
C036   C053    1.418   .     D
C037   C001    1.417   1_565 S
C037   C053    1.433   .     S
C037   C054    1.433   1_455 D
C038   C039    1.430   .     S
C039   C040    1.436   .     S
C039   C042    1.443   .     D
C040   C041    1.439   .     S
C040   C045    1.432   .     D
C041   C005    1.426   1_565 D
C041   C053    1.436   .     S
C042   C043    1.451   .     S
C042   N002    1.393   .     S
C043   C044    1.457   .     S
C043   C046    1.451   .     D
C044   C045    1.442   .     S
C044   C049    1.442   .     D
C045   C009    1.447   1_565 S
C046   C047    1.443   .     S
C046   N004    1.393   .     S
C047   C048    1.436   .     D
C047   C050    1.430   .     S
C048   C049    1.432   .     S
C048   C052    1.439   .     S
C049   C013    1.447   1_565 S
C050   C051    1.427   .     S
C051   C035    1.429   1_655 D
C051   C054    1.418   .     S
C052   C017    1.426   1_565 D
C052   C054    1.436   .     S
C054   C037    1.433   1_655 D
N001   Fe001   1.910   .     S
N002   Fe001   1.903   .     S
N003   Fe001   1.911   .     S
N004   Fe001   1.901   .     S
N005   O001    1.382   .     S
N005   O002    1.221   .     D
N005   O003    1.275   .     S
Fe001  O003    1.955   .     S
O001   H001    0.991   .     S
