data_e+0.8-opt
_audit_creation_date              2024-12-22
_audit_creation_method            'Materials Studio'
_symmetry_space_group_name_H-M    'P1'
_symmetry_Int_Tables_number       1
_symmetry_cell_setting            triclinic
loop_
_symmetry_equiv_pos_as_xyz
  x,y,z
_cell_length_a                    12.4727
_cell_length_b                    12.7357
_cell_length_c                    19.9866
_cell_angle_alpha                 90.0000
_cell_angle_beta                  90.0000
_cell_angle_gamma                 90.0000
loop_
_atom_site_label
_atom_site_type_symbol
_atom_site_fract_x
_atom_site_fract_y
_atom_site_fract_z
_atom_site_U_iso_or_equiv
_atom_site_adp_type
_atom_site_occupancy
C001   C     0.05240   0.04531   0.15549   1.00000  Uiso   1.00
C002   C     0.15276   0.10010   0.15514   1.00000  Uiso   1.00
C003   C     0.15214   0.21141   0.15398   1.00000  Uiso   1.00
C004   C     0.05240   0.26650   0.15326   1.00000  Uiso   1.00
C005   C     0.25361   0.04565   0.15576   1.00000  Uiso   1.00
C006   C     0.35373   0.10176   0.15554   1.00000  Uiso   1.00
C007   C     0.35263   0.21442   0.15463   1.00000  Uiso   1.00
C008   C     0.25147   0.26710   0.15372   1.00000  Uiso   1.00
C009   C     0.45376   0.04649   0.15638   1.00000  Uiso   1.00
C010   C     0.55248   0.10553   0.15645   1.00000  Uiso   1.00
C011   C     0.55250   0.21986   0.15652   1.00000  Uiso   1.00
C012   C     0.45049   0.27492   0.15572   1.00000  Uiso   1.00
C013   C     0.65116   0.04648   0.15624   1.00000  Uiso   1.00
C014   C     0.75108   0.10183   0.15523   1.00000  Uiso   1.00
C015   C     0.75209   0.21460   0.15444   1.00000  Uiso   1.00
C016   C     0.65423   0.27510   0.15566   1.00000  Uiso   1.00
C017   C     0.85119   0.04565   0.15536   1.00000  Uiso   1.00
C018   C     0.95204   0.10010   0.15487   1.00000  Uiso   1.00
C019   C     0.95264   0.21144   0.15374   1.00000  Uiso   1.00
C020   C     0.85333   0.26720   0.15351   1.00000  Uiso   1.00
C021   C     0.05244   0.37812   0.15258   1.00000  Uiso   1.00
C022   C     0.15075   0.43408   0.15270   1.00000  Uiso   1.00
C023   C     0.15077   0.54526   0.15329   1.00000  Uiso   1.00
C024   C     0.05246   0.60125   0.15369   1.00000  Uiso   1.00
C025   C     0.24975   0.37837   0.15308   1.00000  Uiso   1.00
C026   C     0.34771   0.43325   0.15413   1.00000  Uiso   1.00
C027   C     0.34779   0.54595   0.15463   1.00000  Uiso   1.00
C028   C     0.24979   0.60093   0.15420   1.00000  Uiso   1.00
C029   C     0.75729   0.43354   0.15497   1.00000  Uiso   1.00
C030   C     0.75727   0.54598   0.15646   1.00000  Uiso   1.00
C031   C     0.85511   0.37846   0.15326   1.00000  Uiso   1.00
C032   C     0.95414   0.43414   0.15279   1.00000  Uiso   1.00
C033   C     0.95413   0.54529   0.15339   1.00000  Uiso   1.00
C034   C     0.85511   0.60098   0.15484   1.00000  Uiso   1.00
C035   C     0.05247   0.71284   0.15502   1.00000  Uiso   1.00
C036   C     0.15221   0.76794   0.15558   1.00000  Uiso   1.00
C037   C     0.05243   0.93406   0.15607   1.00000  Uiso   1.00
C038   C     0.25157   0.71219   0.15524   1.00000  Uiso   1.00
C039   C     0.35279   0.76490   0.15602   1.00000  Uiso   1.00
C040   C     0.35378   0.87760   0.15645   1.00000  Uiso   1.00
C041   C     0.25364   0.93371   0.15628   1.00000  Uiso   1.00
C042   C     0.45066   0.70443   0.15702   1.00000  Uiso   1.00
C043   C     0.55252   0.75948   0.15826   1.00000  Uiso   1.00
C044   C     0.55247   0.87379   0.15744   1.00000  Uiso   1.00
C045   C     0.45377   0.93288   0.15684   1.00000  Uiso   1.00
C046   C     0.65426   0.70417   0.15834   1.00000  Uiso   1.00
C047   C     0.75208   0.76469   0.15656   1.00000  Uiso   1.00
C048   C     0.75108   0.87746   0.15637   1.00000  Uiso   1.00
C049   C     0.65115   0.93283   0.15681   1.00000  Uiso   1.00
C050   C     0.85337   0.71220   0.15577   1.00000  Uiso   1.00
C051   C     0.95267   0.76792   0.15568   1.00000  Uiso   1.00
C052   C     0.85119   0.93367   0.15597   1.00000  Uiso   1.00
C053   C     0.15280   0.87927   0.15618   1.00000  Uiso   1.00
C054   C     0.95208   0.87926   0.15605   1.00000  Uiso   1.00
N001   N     0.44548   0.38359   0.15623   1.00000  Uiso   1.00
N002   N     0.44554   0.59559   0.15681   1.00000  Uiso   1.00
N003   N     0.65929   0.38415   0.15644   1.00000  Uiso   1.00
N004   N     0.65917   0.59517   0.16026   1.00000  Uiso   1.00
N005   N     0.56429   0.53000   0.31254   1.00000  Uiso   1.00
Fe001  Fe    0.55198   0.48895   0.17104   1.00000  Uiso   1.00
O001   O     0.57498   0.47244   0.37625   1.00000  Uiso   1.00
O002   O     0.59146   0.62361   0.31165   1.00000  Uiso   1.00
O003   O     0.54354   0.46665   0.26524   1.00000  Uiso   1.00
H001   H     0.59422   0.53073   0.40599   1.00000  Uiso   1.00
loop_
_geom_bond_atom_site_label_1
_geom_bond_atom_site_label_2
_geom_bond_distance
_geom_bond_site_symmetry_2
_ccdc_geom_bond_type
C001   C002    1.433   .     D
C001   C018    1.433   1_455 S
C001   C037    1.417   1_545 S
C002   C003    1.418   .     S
C002   C005    1.436   .     S
C003   C004    1.428   .     D
C003   C008    1.428   .     S
C004   C019    1.428   1_455 S
C004   C021    1.422   .     S
C005   C006    1.439   .     S
C005   C041    1.426   1_545 D
C006   C007    1.435   .     S
C006   C009    1.433   .     D
C007   C008    1.429   .     S
C007   C012    1.444   .     D
C008   C025    1.417   .     D
C009   C010    1.443   .     S
C009   C045    1.447   1_545 S
C010   C011    1.456   .     D
C010   C013    1.442   .     S
C011   C012    1.453   .     S
C011   C016    1.451   .     S
C012   N001    1.386   .     S
C013   C014    1.432   .     D
C013   C049    1.447   1_545 S
C014   C015    1.436   .     S
C014   C017    1.439   .     S
C015   C016    1.444   .     S
C015   C020    1.430   .     D
C016   N003    1.390   .     D
C017   C018    1.436   .     S
C017   C052    1.426   1_545 D
C018   C001    1.433   1_655 S
C018   C019    1.418   .     D
C019   C004    1.428   1_655 S
C019   C020    1.428   .     S
C020   C031    1.417   .     S
C021   C022    1.418   .     D
C021   C032    1.418   1_455 S
C022   C023    1.416   .     S
C022   C025    1.424   .     S
C023   C024    1.418   .     D
C023   C028    1.424   .     S
C024   C033    1.418   1_455 S
C024   C035    1.421   .     S
C025   C026    1.408   .     S
C026   C027    1.435   .     S
C026   N001    1.374   .     D
C027   C028    1.409   .     S
C027   N002    1.374   .     D
C028   C038    1.417   .     D
C029   C030    1.432   .     S
C029   C031    1.408   .     D
C029   N003    1.375   .     S
C030   C034    1.408   .     S
C030   N004    1.377   .     D
C031   C032    1.424   .     S
C032   C021    1.418   1_655 S
C032   C033    1.416   .     D
C033   C024    1.418   1_655 S
C033   C034    1.425   .     S
C034   C050    1.417   .     D
C035   C036    1.428   .     S
C035   C051    1.429   1_455 D
C036   C038    1.428   .     S
C036   C053    1.418   .     D
C037   C001    1.417   1_565 S
C037   C053    1.433   .     S
C037   C054    1.433   1_455 D
C038   C039    1.430   .     S
C039   C040    1.435   .     S
C039   C042    1.443   .     D
C040   C041    1.439   .     S
C040   C045    1.432   .     D
C041   C005    1.426   1_565 D
C041   C053    1.436   .     S
C042   C043    1.451   .     S
C042   N002    1.388   .     S
C043   C044    1.456   .     S
C043   C046    1.451   .     D
C044   C045    1.443   .     S
C044   C049    1.442   .     D
C045   C009    1.447   1_565 S
C046   C047    1.444   .     S
C046   N004    1.390   .     S
C047   C048    1.436   .     D
C047   C050    1.429   .     S
C048   C049    1.432   .     S
C048   C052    1.439   .     S
C049   C013    1.447   1_565 S
C050   C051    1.427   .     S
C051   C035    1.429   1_655 D
C051   C054    1.418   .     S
C052   C017    1.426   1_565 D
C052   C054    1.437   .     S
C054   C037    1.433   1_655 D
N001   Fe001   1.911   .     S
N002   Fe001   1.920   .     S
N003   Fe001   1.913   .     S
N004   Fe001   1.914   .     S
N005   O001    1.475   .     S
N005   O002    1.240   .     D
N005   O003    1.270   .     S
Fe001  O003    1.907   .     S
O001   H001    0.981   .     S
