data_e+0.4-opt
_audit_creation_date              2024-12-22
_audit_creation_method            'Materials Studio'
_symmetry_space_group_name_H-M    'P1'
_symmetry_Int_Tables_number       1
_symmetry_cell_setting            triclinic
loop_
_symmetry_equiv_pos_as_xyz
  x,y,z
_cell_length_a                    12.4727
_cell_length_b                    12.7357
_cell_length_c                    19.9866
_cell_angle_alpha                 90.0000
_cell_angle_beta                  90.0000
_cell_angle_gamma                 90.0000
loop_
_atom_site_label
_atom_site_type_symbol
_atom_site_fract_x
_atom_site_fract_y
_atom_site_fract_z
_atom_site_U_iso_or_equiv
_atom_site_adp_type
_atom_site_occupancy
C001   C     0.05197   0.04497   0.15440   1.00000  Uiso   1.00
C002   C     0.15242   0.09973   0.15398   1.00000  Uiso   1.00
C003   C     0.15172   0.21110   0.15283   1.00000  Uiso   1.00
C004   C     0.05192   0.26617   0.15236   1.00000  Uiso   1.00
C005   C     0.25326   0.04535   0.15480   1.00000  Uiso   1.00
C006   C     0.35338   0.10147   0.15518   1.00000  Uiso   1.00
C007   C     0.35227   0.21416   0.15441   1.00000  Uiso   1.00
C008   C     0.25103   0.26676   0.15278   1.00000  Uiso   1.00
C009   C     0.45346   0.04615   0.15651   1.00000  Uiso   1.00
C010   C     0.55209   0.10513   0.15730   1.00000  Uiso   1.00
C011   C     0.55209   0.21972   0.15803   1.00000  Uiso   1.00
C012   C     0.45009   0.27468   0.15668   1.00000  Uiso   1.00
C013   C     0.65065   0.04616   0.15701   1.00000  Uiso   1.00
C014   C     0.75059   0.10161   0.15587   1.00000  Uiso   1.00
C015   C     0.75146   0.21447   0.15566   1.00000  Uiso   1.00
C016   C     0.65357   0.27493   0.15783   1.00000  Uiso   1.00
C017   C     0.85070   0.04536   0.15529   1.00000  Uiso   1.00
C018   C     0.95152   0.09974   0.15426   1.00000  Uiso   1.00
C019   C     0.95200   0.21118   0.15337   1.00000  Uiso   1.00
C020   C     0.85284   0.26692   0.15421   1.00000  Uiso   1.00
C021   C     0.05195   0.37774   0.15176   1.00000  Uiso   1.00
C022   C     0.15039   0.43362   0.15127   1.00000  Uiso   1.00
C023   C     0.15045   0.54489   0.15192   1.00000  Uiso   1.00
C024   C     0.05215   0.60091   0.15295   1.00000  Uiso   1.00
C025   C     0.24926   0.37805   0.15178   1.00000  Uiso   1.00
C026   C     0.34725   0.43296   0.15344   1.00000  Uiso   1.00
C027   C     0.34744   0.54546   0.15303   1.00000  Uiso   1.00
C028   C     0.24943   0.60046   0.15255   1.00000  Uiso   1.00
C029   C     0.75702   0.43351   0.15757   1.00000  Uiso   1.00
C030   C     0.75702   0.54563   0.15902   1.00000  Uiso   1.00
C031   C     0.85462   0.37827   0.15445   1.00000  Uiso   1.00
C032   C     0.95367   0.43375   0.15295   1.00000  Uiso   1.00
C033   C     0.95370   0.54500   0.15363   1.00000  Uiso   1.00
C034   C     0.85492   0.60061   0.15612   1.00000  Uiso   1.00
C035   C     0.05215   0.71246   0.15418   1.00000  Uiso   1.00
C036   C     0.15202   0.76755   0.15422   1.00000  Uiso   1.00
C037   C     0.05206   0.93371   0.15498   1.00000  Uiso   1.00
C038   C     0.25127   0.71182   0.15370   1.00000  Uiso   1.00
C039   C     0.35255   0.76447   0.15494   1.00000  Uiso   1.00
C040   C     0.35345   0.87717   0.15570   1.00000  Uiso   1.00
C041   C     0.25335   0.93330   0.15520   1.00000  Uiso   1.00
C042   C     0.45045   0.70388   0.15630   1.00000  Uiso   1.00
C043   C     0.55219   0.75884   0.15877   1.00000  Uiso   1.00
C044   C     0.55211   0.87339   0.15785   1.00000  Uiso   1.00
C045   C     0.45354   0.93249   0.15673   1.00000  Uiso   1.00
C046   C     0.65387   0.70358   0.15998   1.00000  Uiso   1.00
C047   C     0.75168   0.76418   0.15766   1.00000  Uiso   1.00
C048   C     0.75069   0.87698   0.15693   1.00000  Uiso   1.00
C049   C     0.65070   0.93240   0.15746   1.00000  Uiso   1.00
C050   C     0.85308   0.71180   0.15658   1.00000  Uiso   1.00
C051   C     0.95232   0.76754   0.15545   1.00000  Uiso   1.00
C052   C     0.85077   0.93326   0.15591   1.00000  Uiso   1.00
C053   C     0.15252   0.87891   0.15490   1.00000  Uiso   1.00
C054   C     0.95166   0.87892   0.15550   1.00000  Uiso   1.00
N001   N     0.44511   0.38347   0.15742   1.00000  Uiso   1.00
N002   N     0.44515   0.59506   0.15496   1.00000  Uiso   1.00
N003   N     0.65849   0.38451   0.15981   1.00000  Uiso   1.00
N004   N     0.65892   0.59460   0.16298   1.00000  Uiso   1.00
N005   N     0.56161   0.54146   0.31278   1.00000  Uiso   1.00
Fe001  Fe    0.55102   0.48823   0.17309   1.00000  Uiso   1.00
O001   O     0.57034   0.47753   0.37855   1.00000  Uiso   1.00
O002   O     0.62469   0.61639   0.30720   1.00000  Uiso   1.00
O003   O     0.52694   0.47847   0.26597   1.00000  Uiso   1.00
H001   H     0.60862   0.53018   0.40515   1.00000  Uiso   1.00
loop_
_geom_bond_atom_site_label_1
_geom_bond_atom_site_label_2
_geom_bond_distance
_geom_bond_site_symmetry_2
_ccdc_geom_bond_type
C001   C002    1.434   .     D
C001   C018    1.434   1_455 S
C001   C037    1.417   1_545 S
C002   C003    1.418   .     S
C002   C005    1.436   .     S
C003   C004    1.429   .     D
C003   C008    1.427   .     S
C004   C019    1.430   1_455 S
C004   C021    1.421   .     S
C005   C006    1.439   .     S
C005   C041    1.427   1_545 D
C006   C007    1.435   .     S
C006   C009    1.434   .     D
C007   C008    1.430   .     S
C007   C012    1.444   .     D
C008   C025    1.418   .     D
C009   C010    1.441   .     S
C009   C045    1.448   1_545 S
C010   C011    1.459   .     D
C010   C013    1.441   .     S
C011   C012    1.452   .     S
C011   C016    1.448   .     S
C012   N001    1.387   .     S
C013   C014    1.433   .     D
C013   C049    1.449   1_545 S
C014   C015    1.437   .     S
C014   C017    1.440   .     S
C015   C016    1.444   .     S
C015   C020    1.430   .     D
C016   N003    1.398   .     D
C017   C018    1.436   .     S
C017   C052    1.428   1_545 D
C018   C001    1.434   1_655 S
C018   C019    1.419   .     D
C019   C004    1.430   1_655 S
C019   C020    1.426   .     S
C020   C031    1.418   .     S
C021   C022    1.419   .     D
C021   C032    1.418   1_455 S
C022   C023    1.417   .     S
C022   C025    1.422   .     S
C023   C024    1.419   .     D
C023   C028    1.423   .     S
C024   C033    1.419   1_455 S
C024   C035    1.421   .     S
C025   C026    1.409   .     S
C026   C027    1.433   .     S
C026   N001    1.376   .     D
C027   C028    1.409   .     S
C027   N002    1.373   .     D
C028   C038    1.419   .     D
C029   C030    1.428   .     S
C029   C031    1.407   .     D
C029   N003    1.379   .     S
C030   C034    1.409   .     S
C030   N004    1.376   .     D
C031   C032    1.423   .     S
C032   C021    1.418   1_655 S
C032   C033    1.417   .     D
C033   C024    1.419   1_655 S
C033   C034    1.422   .     S
C034   C050    1.416   .     D
C035   C036    1.430   .     S
C035   C051    1.429   1_455 D
C036   C038    1.427   .     S
C036   C053    1.418   .     D
C037   C001    1.417   1_565 S
C037   C053    1.434   .     S
C037   C054    1.434   1_455 D
C038   C039    1.430   .     S
C039   C040    1.436   .     S
C039   C042    1.445   .     D
C040   C041    1.439   .     S
C040   C045    1.434   .     D
C041   C005    1.427   1_565 D
C041   C053    1.436   .     S
C042   C043    1.450   .     S
C042   N002    1.388   .     S
C043   C044    1.459   .     S
C043   C046    1.451   .     D
C044   C045    1.442   .     S
C044   C049    1.441   .     D
C045   C009    1.448   1_565 S
C046   C047    1.444   .     S
C046   N004    1.391   .     S
C047   C048    1.437   .     D
C047   C050    1.430   .     S
C048   C049    1.433   .     S
C048   C052    1.440   .     S
C049   C013    1.449   1_565 S
C050   C051    1.427   .     S
C051   C035    1.429   1_655 D
C051   C054    1.419   .     S
C052   C017    1.428   1_565 D
C052   C054    1.436   .     S
C054   C037    1.434   1_655 D
N001   Fe001   1.903   .     S
N002   Fe001   1.930   .     S
N003   Fe001   1.901   .     S
N004   Fe001   1.920   .     S
N005   O001    1.550   .     S
N005   O002    1.242   .     D
N005   O003    1.306   .     S
Fe001  O003    1.885   .     S
O001   H001    0.980   .     S
