data_e-0.8-opt
_audit_creation_date              2024-12-22
_audit_creation_method            'Materials Studio'
_symmetry_space_group_name_H-M    'P1'
_symmetry_Int_Tables_number       1
_symmetry_cell_setting            triclinic
loop_
_symmetry_equiv_pos_as_xyz
  x,y,z
_cell_length_a                    12.4727
_cell_length_b                    12.7357
_cell_length_c                    19.9866
_cell_angle_alpha                 90.0000
_cell_angle_beta                  90.0000
_cell_angle_gamma                 90.0000
loop_
_atom_site_label
_atom_site_type_symbol
_atom_site_fract_x
_atom_site_fract_y
_atom_site_fract_z
_atom_site_U_iso_or_equiv
_atom_site_adp_type
_atom_site_occupancy
C001   C     0.05241   0.04533   0.15530   1.00000  Uiso   1.00
C002   C     0.15281   0.10009   0.15496   1.00000  Uiso   1.00
C003   C     0.15220   0.21144   0.15379   1.00000  Uiso   1.00
C004   C     0.05241   0.26651   0.15307   1.00000  Uiso   1.00
C005   C     0.25365   0.04572   0.15560   1.00000  Uiso   1.00
C006   C     0.35376   0.10187   0.15548   1.00000  Uiso   1.00
C007   C     0.35273   0.21459   0.15467   1.00000  Uiso   1.00
C008   C     0.25143   0.26715   0.15365   1.00000  Uiso   1.00
C009   C     0.45381   0.04655   0.15629   1.00000  Uiso   1.00
C010   C     0.55243   0.10557   0.15641   1.00000  Uiso   1.00
C011   C     0.55243   0.22005   0.15663   1.00000  Uiso   1.00
C012   C     0.45056   0.27515   0.15590   1.00000  Uiso   1.00
C013   C     0.65104   0.04654   0.15617   1.00000  Uiso   1.00
C014   C     0.75105   0.10187   0.15520   1.00000  Uiso   1.00
C015   C     0.75205   0.21463   0.15459   1.00000  Uiso   1.00
C016   C     0.65423   0.27519   0.15612   1.00000  Uiso   1.00
C017   C     0.85116   0.04570   0.15527   1.00000  Uiso   1.00
C018   C     0.95200   0.10008   0.15473   1.00000  Uiso   1.00
C019   C     0.95260   0.21145   0.15361   1.00000  Uiso   1.00
C020   C     0.85338   0.26717   0.15359   1.00000  Uiso   1.00
C021   C     0.05241   0.37808   0.15242   1.00000  Uiso   1.00
C022   C     0.15069   0.43410   0.15252   1.00000  Uiso   1.00
C023   C     0.15069   0.54533   0.15304   1.00000  Uiso   1.00
C024   C     0.05241   0.60134   0.15351   1.00000  Uiso   1.00
C025   C     0.24963   0.37846   0.15309   1.00000  Uiso   1.00
C026   C     0.34744   0.43350   0.15448   1.00000  Uiso   1.00
C027   C     0.34745   0.54589   0.15521   1.00000  Uiso   1.00
C028   C     0.24967   0.60095   0.15412   1.00000  Uiso   1.00
C029   C     0.75741   0.43356   0.15543   1.00000  Uiso   1.00
C030   C     0.75739   0.54587   0.15656   1.00000  Uiso   1.00
C031   C     0.85518   0.37848   0.15344   1.00000  Uiso   1.00
C032   C     0.95413   0.43411   0.15273   1.00000  Uiso   1.00
C033   C     0.95411   0.54534   0.15336   1.00000  Uiso   1.00
C034   C     0.85513   0.60094   0.15491   1.00000  Uiso   1.00
C035   C     0.05242   0.71289   0.15481   1.00000  Uiso   1.00
C036   C     0.15223   0.76795   0.15537   1.00000  Uiso   1.00
C037   C     0.05241   0.93407   0.15590   1.00000  Uiso   1.00
C038   C     0.25145   0.71226   0.15516   1.00000  Uiso   1.00
C039   C     0.35280   0.76482   0.15605   1.00000  Uiso   1.00
C040   C     0.35378   0.87756   0.15631   1.00000  Uiso   1.00
C041   C     0.25366   0.93370   0.15607   1.00000  Uiso   1.00
C042   C     0.45063   0.70437   0.15756   1.00000  Uiso   1.00
C043   C     0.55244   0.75941   0.15835   1.00000  Uiso   1.00
C044   C     0.55243   0.87388   0.15738   1.00000  Uiso   1.00
C045   C     0.45381   0.93290   0.15673   1.00000  Uiso   1.00
C046   C     0.65418   0.70424   0.15834   1.00000  Uiso   1.00
C047   C     0.75200   0.76472   0.15658   1.00000  Uiso   1.00
C048   C     0.75104   0.87749   0.15635   1.00000  Uiso   1.00
C049   C     0.65104   0.93287   0.15672   1.00000  Uiso   1.00
C050   C     0.85338   0.71224   0.15575   1.00000  Uiso   1.00
C051   C     0.95260   0.76793   0.15555   1.00000  Uiso   1.00
C052   C     0.85115   0.93367   0.15589   1.00000  Uiso   1.00
C053   C     0.15282   0.87932   0.15598   1.00000  Uiso   1.00
C054   C     0.95201   0.87930   0.15593   1.00000  Uiso   1.00
N001   N     0.44556   0.38414   0.15625   1.00000  Uiso   1.00
N002   N     0.44567   0.59521   0.15812   1.00000  Uiso   1.00
N003   N     0.65922   0.38428   0.15703   1.00000  Uiso   1.00
N004   N     0.65901   0.59502   0.15984   1.00000  Uiso   1.00
N005   N     0.56990   0.52834   0.31342   1.00000  Uiso   1.00
Fe001  Fe    0.55207   0.48960   0.17042   1.00000  Uiso   1.00
O001   O     0.57320   0.47547   0.37431   1.00000  Uiso   1.00
O002   O     0.58973   0.62221   0.30964   1.00000  Uiso   1.00
O003   O     0.54574   0.46476   0.26662   1.00000  Uiso   1.00
H001   H     0.59131   0.52997   0.40773   1.00000  Uiso   1.00
loop_
_geom_bond_atom_site_label_1
_geom_bond_atom_site_label_2
_geom_bond_distance
_geom_bond_site_symmetry_2
_ccdc_geom_bond_type
C001   C002    1.433   .     D
C001   C018    1.433   1_455 S
C001   C037    1.417   1_545 S
C002   C003    1.418   .     S
C002   C005    1.436   .     S
C003   C004    1.429   .     D
C003   C008    1.427   .     S
C004   C019    1.429   1_455 S
C004   C021    1.421   .     S
C005   C006    1.439   .     S
C005   C041    1.427   1_545 D
C006   C007    1.436   .     S
C006   C009    1.433   .     D
C007   C008    1.430   .     S
C007   C012    1.444   .     D
C008   C025    1.418   .     D
C009   C010    1.442   .     S
C009   C045    1.448   1_545 S
C010   C011    1.458   .     D
C010   C013    1.442   .     S
C011   C012    1.452   .     S
C011   C016    1.451   .     S
C012   N001    1.390   .     S
C013   C014    1.433   .     D
C013   C049    1.448   1_545 S
C014   C015    1.436   .     S
C014   C017    1.439   .     S
C015   C016    1.444   .     S
C015   C020    1.430   .     D
C016   N003    1.391   .     D
C017   C018    1.436   .     S
C017   C052    1.427   1_545 D
C018   C001    1.433   1_655 S
C018   C019    1.418   .     D
C019   C004    1.429   1_655 S
C019   C020    1.427   .     S
C020   C031    1.418   .     S
C021   C022    1.418   .     D
C021   C032    1.418   1_455 S
C022   C023    1.417   .     S
C022   C025    1.423   .     S
C023   C024    1.418   .     D
C023   C028    1.423   .     S
C024   C033    1.419   1_455 S
C024   C035    1.421   .     S
C025   C026    1.407   .     S
C026   C027    1.431   .     S
C026   N001    1.376   .     D
C027   C028    1.407   .     S
C027   N002    1.378   .     D
C028   C038    1.418   .     D
C029   C030    1.431   .     S
C029   C031    1.407   .     D
C029   N003    1.376   .     S
C030   C034    1.407   .     S
C030   N004    1.379   .     D
C031   C032    1.423   .     S
C032   C021    1.418   1_655 S
C032   C033    1.417   .     D
C033   C024    1.419   1_655 S
C033   C034    1.424   .     S
C034   C050    1.418   .     D
C035   C036    1.429   .     S
C035   C051    1.429   1_455 D
C036   C038    1.426   .     S
C036   C053    1.418   .     D
C037   C001    1.417   1_565 S
C037   C053    1.433   .     S
C037   C054    1.433   1_455 D
C038   C039    1.431   .     S
C039   C040    1.436   .     S
C039   C042    1.443   .     D
C040   C041    1.439   .     S
C040   C045    1.433   .     D
C041   C005    1.427   1_565 D
C041   C053    1.436   .     S
C042   C043    1.451   .     S
C042   N002    1.392   .     S
C043   C044    1.458   .     S
C043   C046    1.450   .     D
C044   C045    1.442   .     S
C044   C049    1.441   .     D
C045   C009    1.448   1_565 S
C046   C047    1.443   .     S
C046   N004    1.393   .     S
C047   C048    1.436   .     D
C047   C050    1.430   .     S
C048   C049    1.433   .     S
C048   C052    1.439   .     S
C049   C013    1.448   1_565 S
C050   C051    1.426   .     S
C051   C035    1.429   1_655 D
C051   C054    1.418   .     S
C052   C017    1.427   1_565 D
C052   C054    1.436   .     S
C054   C037    1.433   1_655 D
N001   Fe001   1.910   .     S
N002   Fe001   1.905   .     S
N003   Fe001   1.912   .     S
N004   Fe001   1.904   .     S
N005   O001    1.392   .     S
N005   O002    1.223   .     D
N005   O003    1.273   .     S
Fe001  O003    1.950   .     S
O001   H001    0.989   .     S
