data_e-0.6-opt
_audit_creation_date              2024-12-22
_audit_creation_method            'Materials Studio'
_symmetry_space_group_name_H-M    'P1'
_symmetry_Int_Tables_number       1
_symmetry_cell_setting            triclinic
loop_
_symmetry_equiv_pos_as_xyz
  x,y,z
_cell_length_a                    12.4727
_cell_length_b                    12.7357
_cell_length_c                    19.9866
_cell_angle_alpha                 90.0000
_cell_angle_beta                  90.0000
_cell_angle_gamma                 90.0000
loop_
_atom_site_label
_atom_site_type_symbol
_atom_site_fract_x
_atom_site_fract_y
_atom_site_fract_z
_atom_site_U_iso_or_equiv
_atom_site_adp_type
_atom_site_occupancy
C001   C     0.05238   0.04527   0.15510   1.00000  Uiso   1.00
C002   C     0.15281   0.10009   0.15475   1.00000  Uiso   1.00
C003   C     0.15220   0.21144   0.15361   1.00000  Uiso   1.00
C004   C     0.05237   0.26653   0.15294   1.00000  Uiso   1.00
C005   C     0.25363   0.04572   0.15543   1.00000  Uiso   1.00
C006   C     0.35374   0.10189   0.15543   1.00000  Uiso   1.00
C007   C     0.35270   0.21454   0.15471   1.00000  Uiso   1.00
C008   C     0.25140   0.26714   0.15360   1.00000  Uiso   1.00
C009   C     0.45382   0.04652   0.15630   1.00000  Uiso   1.00
C010   C     0.55242   0.10550   0.15652   1.00000  Uiso   1.00
C011   C     0.55242   0.22008   0.15680   1.00000  Uiso   1.00
C012   C     0.45057   0.27514   0.15612   1.00000  Uiso   1.00
C013   C     0.65096   0.04650   0.15626   1.00000  Uiso   1.00
C014   C     0.75104   0.10187   0.15530   1.00000  Uiso   1.00
C015   C     0.75206   0.21453   0.15476   1.00000  Uiso   1.00
C016   C     0.65422   0.27515   0.15628   1.00000  Uiso   1.00
C017   C     0.85112   0.04568   0.15526   1.00000  Uiso   1.00
C018   C     0.95195   0.10007   0.15463   1.00000  Uiso   1.00
C019   C     0.95254   0.21143   0.15357   1.00000  Uiso   1.00
C020   C     0.85338   0.26713   0.15372   1.00000  Uiso   1.00
C021   C     0.05238   0.37804   0.15232   1.00000  Uiso   1.00
C022   C     0.15069   0.43406   0.15242   1.00000  Uiso   1.00
C023   C     0.15068   0.54535   0.15295   1.00000  Uiso   1.00
C024   C     0.05238   0.60137   0.15338   1.00000  Uiso   1.00
C025   C     0.24955   0.37848   0.15314   1.00000  Uiso   1.00
C026   C     0.34743   0.43349   0.15484   1.00000  Uiso   1.00
C027   C     0.34743   0.54586   0.15556   1.00000  Uiso   1.00
C028   C     0.24960   0.60091   0.15421   1.00000  Uiso   1.00
C029   C     0.75742   0.43354   0.15568   1.00000  Uiso   1.00
C030   C     0.75737   0.54584   0.15682   1.00000  Uiso   1.00
C031   C     0.85521   0.37849   0.15363   1.00000  Uiso   1.00
C032   C     0.95410   0.43407   0.15276   1.00000  Uiso   1.00
C033   C     0.95405   0.54536   0.15334   1.00000  Uiso   1.00
C034   C     0.85515   0.60090   0.15502   1.00000  Uiso   1.00
C035   C     0.05238   0.71285   0.15466   1.00000  Uiso   1.00
C036   C     0.15222   0.76794   0.15520   1.00000  Uiso   1.00
C037   C     0.05238   0.93410   0.15569   1.00000  Uiso   1.00
C038   C     0.25140   0.71226   0.15514   1.00000  Uiso   1.00
C039   C     0.35276   0.76486   0.15612   1.00000  Uiso   1.00
C040   C     0.35374   0.87753   0.15626   1.00000  Uiso   1.00
C041   C     0.25364   0.93368   0.15590   1.00000  Uiso   1.00
C042   C     0.45061   0.70434   0.15778   1.00000  Uiso   1.00
C043   C     0.55241   0.75933   0.15853   1.00000  Uiso   1.00
C044   C     0.55238   0.87391   0.15746   1.00000  Uiso   1.00
C045   C     0.45383   0.93290   0.15674   1.00000  Uiso   1.00
C046   C     0.65410   0.70420   0.15853   1.00000  Uiso   1.00
C047   C     0.75196   0.76472   0.15667   1.00000  Uiso   1.00
C048   C     0.75100   0.87743   0.15640   1.00000  Uiso   1.00
C049   C     0.65096   0.93287   0.15679   1.00000  Uiso   1.00
C050   C     0.85336   0.71222   0.15579   1.00000  Uiso   1.00
C051   C     0.95253   0.76791   0.15546   1.00000  Uiso   1.00
C052   C     0.85111   0.93363   0.15586   1.00000  Uiso   1.00
C053   C     0.15282   0.87930   0.15576   1.00000  Uiso   1.00
C054   C     0.95194   0.87928   0.15581   1.00000  Uiso   1.00
N001   N     0.44549   0.38405   0.15667   1.00000  Uiso   1.00
N002   N     0.44558   0.59529   0.15844   1.00000  Uiso   1.00
N003   N     0.65934   0.38412   0.15710   1.00000  Uiso   1.00
N004   N     0.65904   0.59505   0.16014   1.00000  Uiso   1.00
N005   N     0.57057   0.52833   0.31267   1.00000  Uiso   1.00
Fe001  Fe    0.55212   0.48947   0.17075   1.00000  Uiso   1.00
O001   O     0.57174   0.47587   0.37438   1.00000  Uiso   1.00
O002   O     0.59251   0.62197   0.30903   1.00000  Uiso   1.00
O003   O     0.54626   0.46453   0.26610   1.00000  Uiso   1.00
H001   H     0.59022   0.53126   0.40701   1.00000  Uiso   1.00
loop_
_geom_bond_atom_site_label_1
_geom_bond_atom_site_label_2
_geom_bond_distance
_geom_bond_site_symmetry_2
_ccdc_geom_bond_type
C001   C002    1.434   .     D
C001   C018    1.434   1_455 S
C001   C037    1.416   1_545 S
C002   C003    1.418   .     S
C002   C005    1.436   .     S
C003   C004    1.429   .     D
C003   C008    1.426   .     S
C004   C019    1.429   1_455 S
C004   C021    1.420   .     S
C005   C006    1.439   .     S
C005   C041    1.427   1_545 D
C006   C007    1.435   .     S
C006   C009    1.434   .     D
C007   C008    1.430   .     S
C007   C012    1.444   .     D
C008   C025    1.418   .     D
C009   C010    1.441   .     S
C009   C045    1.447   1_545 S
C010   C011    1.459   .     D
C010   C013    1.441   .     S
C011   C012    1.451   .     S
C011   C016    1.451   .     S
C012   N001    1.389   .     S
C013   C014    1.434   .     D
C013   C049    1.447   1_545 S
C014   C015    1.435   .     S
C014   C017    1.439   .     S
C015   C016    1.444   .     S
C015   C020    1.431   .     D
C016   N003    1.389   .     D
C017   C018    1.436   .     S
C017   C052    1.427   1_545 D
C018   C001    1.434   1_655 S
C018   C019    1.418   .     D
C019   C004    1.429   1_655 S
C019   C020    1.426   .     S
C020   C031    1.418   .     S
C021   C022    1.419   .     D
C021   C032    1.418   1_455 S
C022   C023    1.417   .     S
C022   C025    1.422   .     S
C023   C024    1.419   .     D
C023   C028    1.423   .     S
C024   C033    1.419   1_455 S
C024   C035    1.420   .     S
C025   C026    1.408   .     S
C026   C027    1.431   .     S
C026   N001    1.376   .     D
C027   C028    1.408   .     S
C027   N002    1.378   .     D
C028   C038    1.418   .     D
C029   C030    1.430   .     S
C029   C031    1.407   .     D
C029   N003    1.376   .     S
C030   C034    1.407   .     S
C030   N004    1.379   .     D
C031   C032    1.422   .     S
C032   C021    1.418   1_655 S
C032   C033    1.417   .     D
C033   C024    1.419   1_655 S
C033   C034    1.422   .     S
C034   C050    1.418   .     D
C035   C036    1.429   .     S
C035   C051    1.429   1_455 D
C036   C038    1.426   .     S
C036   C053    1.418   .     D
C037   C001    1.416   1_565 S
C037   C053    1.434   .     S
C037   C054    1.434   1_455 D
C038   C039    1.431   .     S
C039   C040    1.435   .     S
C039   C042    1.444   .     D
C040   C041    1.439   .     S
C040   C045    1.434   .     D
C041   C005    1.427   1_565 D
C041   C053    1.436   .     S
C042   C043    1.450   .     S
C042   N002    1.390   .     S
C043   C044    1.459   .     S
C043   C046    1.450   .     D
C044   C045    1.441   .     S
C044   C049    1.441   .     D
C045   C009    1.447   1_565 S
C046   C047    1.444   .     S
C046   N004    1.392   .     S
C047   C048    1.435   .     D
C047   C050    1.431   .     S
C048   C049    1.434   .     S
C048   C052    1.439   .     S
C049   C013    1.447   1_565 S
C050   C051    1.426   .     S
C051   C035    1.429   1_655 D
C051   C054    1.418   .     S
C052   C017    1.427   1_565 D
C052   C054    1.436   .     S
C054   C037    1.434   1_655 D
N001   Fe001   1.911   .     S
N002   Fe001   1.909   .     S
N003   Fe001   1.914   .     S
N004   Fe001   1.906   .     S
N005   O001    1.403   .     S
N005   O002    1.226   .     D
N005   O003    1.272   .     S
Fe001  O003    1.933   .     S
O001   H001    0.988   .     S
