data_e+0.2-opt
_audit_creation_date              2024-12-22
_audit_creation_method            'Materials Studio'
_symmetry_space_group_name_H-M    'P1'
_symmetry_Int_Tables_number       1
_symmetry_cell_setting            triclinic
loop_
_symmetry_equiv_pos_as_xyz
  x,y,z
_cell_length_a                    12.4727
_cell_length_b                    12.7357
_cell_length_c                    19.9866
_cell_angle_alpha                 90.0000
_cell_angle_beta                  90.0000
_cell_angle_gamma                 90.0000
loop_
_atom_site_label
_atom_site_type_symbol
_atom_site_fract_x
_atom_site_fract_y
_atom_site_fract_z
_atom_site_U_iso_or_equiv
_atom_site_adp_type
_atom_site_occupancy
C001   C     0.05192   0.04497   0.15460   1.00000  Uiso   1.00
C002   C     0.15238   0.09974   0.15422   1.00000  Uiso   1.00
C003   C     0.15171   0.21112   0.15317   1.00000  Uiso   1.00
C004   C     0.05190   0.26618   0.15268   1.00000  Uiso   1.00
C005   C     0.25320   0.04540   0.15501   1.00000  Uiso   1.00
C006   C     0.35333   0.10152   0.15542   1.00000  Uiso   1.00
C007   C     0.35225   0.21421   0.15470   1.00000  Uiso   1.00
C008   C     0.25097   0.26679   0.15320   1.00000  Uiso   1.00
C009   C     0.45343   0.04618   0.15670   1.00000  Uiso   1.00
C010   C     0.55203   0.10511   0.15740   1.00000  Uiso   1.00
C011   C     0.55202   0.21978   0.15795   1.00000  Uiso   1.00
C012   C     0.45011   0.27475   0.15676   1.00000  Uiso   1.00
C013   C     0.65054   0.04616   0.15712   1.00000  Uiso   1.00
C014   C     0.75057   0.10155   0.15601   1.00000  Uiso   1.00
C015   C     0.75150   0.21432   0.15564   1.00000  Uiso   1.00
C016   C     0.65364   0.27486   0.15754   1.00000  Uiso   1.00
C017   C     0.85066   0.04535   0.15549   1.00000  Uiso   1.00
C018   C     0.95148   0.09972   0.15449   1.00000  Uiso   1.00
C019   C     0.95200   0.21114   0.15360   1.00000  Uiso   1.00
C020   C     0.85287   0.26686   0.15425   1.00000  Uiso   1.00
C021   C     0.05190   0.37772   0.15208   1.00000  Uiso   1.00
C022   C     0.15031   0.43366   0.15177   1.00000  Uiso   1.00
C023   C     0.15032   0.54496   0.15232   1.00000  Uiso   1.00
C024   C     0.05203   0.60098   0.15310   1.00000  Uiso   1.00
C025   C     0.24912   0.37811   0.15238   1.00000  Uiso   1.00
C026   C     0.34708   0.43308   0.15406   1.00000  Uiso   1.00
C027   C     0.34718   0.54550   0.15381   1.00000  Uiso   1.00
C028   C     0.24922   0.60052   0.15307   1.00000  Uiso   1.00
C029   C     0.75700   0.43339   0.15683   1.00000  Uiso   1.00
C030   C     0.75691   0.54559   0.15801   1.00000  Uiso   1.00
C031   C     0.85470   0.37823   0.15426   1.00000  Uiso   1.00
C032   C     0.95364   0.43374   0.15298   1.00000  Uiso   1.00
C033   C     0.95360   0.54504   0.15355   1.00000  Uiso   1.00
C034   C     0.85486   0.60058   0.15565   1.00000  Uiso   1.00
C035   C     0.05203   0.71250   0.15426   1.00000  Uiso   1.00
C036   C     0.15190   0.76759   0.15441   1.00000  Uiso   1.00
C037   C     0.05198   0.93373   0.15511   1.00000  Uiso   1.00
C038   C     0.25109   0.71189   0.15406   1.00000  Uiso   1.00
C039   C     0.35239   0.76452   0.15526   1.00000  Uiso   1.00
C040   C     0.35335   0.87720   0.15590   1.00000  Uiso   1.00
C041   C     0.25326   0.93332   0.15537   1.00000  Uiso   1.00
C042   C     0.45028   0.70393   0.15667   1.00000  Uiso   1.00
C043   C     0.55206   0.75883   0.15872   1.00000  Uiso   1.00
C044   C     0.55200   0.87346   0.15793   1.00000  Uiso   1.00
C045   C     0.45347   0.93250   0.15691   1.00000  Uiso   1.00
C046   C     0.65376   0.70362   0.15935   1.00000  Uiso   1.00
C047   C     0.75160   0.76423   0.15733   1.00000  Uiso   1.00
C048   C     0.75060   0.87700   0.15692   1.00000  Uiso   1.00
C049   C     0.65057   0.93241   0.15752   1.00000  Uiso   1.00
C050   C     0.85299   0.71183   0.15625   1.00000  Uiso   1.00
C051   C     0.95221   0.76755   0.15539   1.00000  Uiso   1.00
C052   C     0.85070   0.93324   0.15602   1.00000  Uiso   1.00
C053   C     0.15243   0.87896   0.15504   1.00000  Uiso   1.00
C054   C     0.95155   0.87894   0.15557   1.00000  Uiso   1.00
N001   N     0.44503   0.38365   0.15743   1.00000  Uiso   1.00
N002   N     0.44498   0.59507   0.15580   1.00000  Uiso   1.00
N003   N     0.65874   0.38418   0.15885   1.00000  Uiso   1.00
N004   N     0.65881   0.59459   0.16153   1.00000  Uiso   1.00
N005   N     0.57137   0.53589   0.31159   1.00000  Uiso   1.00
Fe001  Fe    0.55115   0.48861   0.17211   1.00000  Uiso   1.00
O001   O     0.56109   0.48354   0.37675   1.00000  Uiso   1.00
O002   O     0.63273   0.61223   0.30746   1.00000  Uiso   1.00
O003   O     0.53117   0.47762   0.26570   1.00000  Uiso   1.00
H001   H     0.59992   0.53377   0.40501   1.00000  Uiso   1.00
loop_
_geom_bond_atom_site_label_1
_geom_bond_atom_site_label_2
_geom_bond_distance
_geom_bond_site_symmetry_2
_ccdc_geom_bond_type
C001   C002    1.434   .     D
C001   C018    1.434   1_455 S
C001   C037    1.417   1_545 S
C002   C003    1.419   .     S
C002   C005    1.435   .     S
C003   C004    1.429   .     D
C003   C008    1.427   .     S
C004   C019    1.430   1_455 S
C004   C021    1.421   .     S
C005   C006    1.439   .     S
C005   C041    1.427   1_545 D
C006   C007    1.435   .     S
C006   C009    1.434   .     D
C007   C008    1.430   .     S
C007   C012    1.444   .     D
C008   C025    1.418   .     D
C009   C010    1.441   .     S
C009   C045    1.448   1_545 S
C010   C011    1.460   .     D
C010   C013    1.440   .     S
C011   C012    1.451   .     S
C011   C016    1.449   .     S
C012   N001    1.388   .     S
C013   C014    1.434   .     D
C013   C049    1.449   1_545 S
C014   C015    1.436   .     S
C014   C017    1.439   .     S
C015   C016    1.444   .     S
C015   C020    1.431   .     D
C016   N003    1.394   .     D
C017   C018    1.436   .     S
C017   C052    1.428   1_545 D
C018   C001    1.434   1_655 S
C018   C019    1.419   .     D
C019   C004    1.430   1_655 S
C019   C020    1.426   .     S
C020   C031    1.419   .     S
C021   C022    1.419   .     D
C021   C032    1.418   1_455 S
C022   C023    1.418   .     S
C022   C025    1.421   .     S
C023   C024    1.419   .     D
C023   C028    1.422   .     S
C024   C033    1.419   1_455 S
C024   C035    1.420   .     S
C025   C026    1.408   .     S
C026   C027    1.432   .     S
C026   N001    1.376   .     D
C027   C028    1.409   .     S
C027   N002    1.374   .     D
C028   C038    1.419   .     D
C029   C030    1.429   .     S
C029   C031    1.407   .     D
C029   N003    1.377   .     S
C030   C034    1.409   .     S
C030   N004    1.375   .     D
C031   C032    1.422   .     S
C032   C021    1.418   1_655 S
C032   C033    1.418   .     D
C033   C024    1.419   1_655 S
C033   C034    1.421   .     S
C034   C050    1.417   .     D
C035   C036    1.430   .     S
C035   C051    1.429   1_455 D
C036   C038    1.426   .     S
C036   C053    1.418   .     D
C037   C001    1.417   1_565 S
C037   C053    1.434   .     S
C037   C054    1.434   1_455 D
C038   C039    1.431   .     S
C039   C040    1.435   .     S
C039   C042    1.445   .     D
C040   C041    1.439   .     S
C040   C045    1.434   .     D
C041   C005    1.427   1_565 D
C041   C053    1.436   .     S
C042   C043    1.450   .     S
C042   N002    1.388   .     S
C043   C044    1.460   .     S
C043   C046    1.450   .     D
C044   C045    1.441   .     S
C044   C049    1.441   .     D
C045   C009    1.448   1_565 S
C046   C047    1.444   .     S
C046   N004    1.391   .     S
C047   C048    1.436   .     D
C047   C050    1.430   .     S
C048   C049    1.433   .     S
C048   C052    1.440   .     S
C049   C013    1.449   1_565 S
C050   C051    1.427   .     S
C051   C035    1.429   1_655 D
C051   C054    1.419   .     S
C052   C017    1.428   1_565 D
C052   C054    1.435   .     S
C054   C037    1.434   1_655 D
N001   Fe001   1.904   .     S
N002   Fe001   1.923   .     S
N003   Fe001   1.908   .     S
N004   Fe001   1.916   .     S
N005   O001    1.469   .     S
N005   O002    1.240   .     D
N005   O003    1.282   .     S
Fe001  O003    1.892   .     S
O001   H001    0.981   .     S
