data_e-0.2-opt
_audit_creation_date              2024-12-22
_audit_creation_method            'Materials Studio'
_symmetry_space_group_name_H-M    'P1'
_symmetry_Int_Tables_number       1
_symmetry_cell_setting            triclinic
loop_
_symmetry_equiv_pos_as_xyz
  x,y,z
_cell_length_a                    12.4727
_cell_length_b                    12.7357
_cell_length_c                    19.9866
_cell_angle_alpha                 90.0000
_cell_angle_beta                  90.0000
_cell_angle_gamma                 90.0000
loop_
_atom_site_label
_atom_site_type_symbol
_atom_site_fract_x
_atom_site_fract_y
_atom_site_fract_z
_atom_site_U_iso_or_equiv
_atom_site_adp_type
_atom_site_occupancy
C001   C     0.05227   0.04513   0.15470   1.00000  Uiso   1.00
C002   C     0.15272   0.09992   0.15440   1.00000  Uiso   1.00
C003   C     0.15208   0.21130   0.15344   1.00000  Uiso   1.00
C004   C     0.05227   0.26639   0.15288   1.00000  Uiso   1.00
C005   C     0.25352   0.04558   0.15516   1.00000  Uiso   1.00
C006   C     0.35364   0.10174   0.15543   1.00000  Uiso   1.00
C007   C     0.35259   0.21437   0.15479   1.00000  Uiso   1.00
C008   C     0.25129   0.26698   0.15361   1.00000  Uiso   1.00
C009   C     0.45374   0.04636   0.15652   1.00000  Uiso   1.00
C010   C     0.55234   0.10530   0.15688   1.00000  Uiso   1.00
C011   C     0.55234   0.21992   0.15717   1.00000  Uiso   1.00
C012   C     0.45049   0.27495   0.15641   1.00000  Uiso   1.00
C013   C     0.65084   0.04632   0.15663   1.00000  Uiso   1.00
C014   C     0.75095   0.10171   0.15554   1.00000  Uiso   1.00
C015   C     0.75195   0.21435   0.15500   1.00000  Uiso   1.00
C016   C     0.65409   0.27498   0.15654   1.00000  Uiso   1.00
C017   C     0.85101   0.04552   0.15527   1.00000  Uiso   1.00
C018   C     0.95183   0.09990   0.15444   1.00000  Uiso   1.00
C019   C     0.95241   0.21129   0.15352   1.00000  Uiso   1.00
C020   C     0.85327   0.26698   0.15385   1.00000  Uiso   1.00
C021   C     0.05227   0.37786   0.15240   1.00000  Uiso   1.00
C022   C     0.15063   0.43389   0.15252   1.00000  Uiso   1.00
C023   C     0.15061   0.54517   0.15307   1.00000  Uiso   1.00
C024   C     0.05231   0.60122   0.15344   1.00000  Uiso   1.00
C025   C     0.24945   0.37833   0.15324   1.00000  Uiso   1.00
C026   C     0.34737   0.43332   0.15500   1.00000  Uiso   1.00
C027   C     0.34739   0.54568   0.15544   1.00000  Uiso   1.00
C028   C     0.24951   0.60074   0.15425   1.00000  Uiso   1.00
C029   C     0.75731   0.43343   0.15588   1.00000  Uiso   1.00
C030   C     0.75721   0.54570   0.15710   1.00000  Uiso   1.00
C031   C     0.85512   0.37835   0.15381   1.00000  Uiso   1.00
C032   C     0.95399   0.43392   0.15292   1.00000  Uiso   1.00
C033   C     0.95393   0.54521   0.15348   1.00000  Uiso   1.00
C034   C     0.85510   0.60075   0.15520   1.00000  Uiso   1.00
C035   C     0.05231   0.71267   0.15453   1.00000  Uiso   1.00
C036   C     0.15216   0.76778   0.15494   1.00000  Uiso   1.00
C037   C     0.05229   0.93393   0.15526   1.00000  Uiso   1.00
C038   C     0.25132   0.71210   0.15501   1.00000  Uiso   1.00
C039   C     0.35265   0.76475   0.15604   1.00000  Uiso   1.00
C040   C     0.35363   0.87738   0.15622   1.00000  Uiso   1.00
C041   C     0.25354   0.93352   0.15563   1.00000  Uiso   1.00
C042   C     0.45054   0.70418   0.15765   1.00000  Uiso   1.00
C043   C     0.55231   0.75912   0.15877   1.00000  Uiso   1.00
C044   C     0.55228   0.87373   0.15779   1.00000  Uiso   1.00
C045   C     0.45377   0.93274   0.15693   1.00000  Uiso   1.00
C046   C     0.65399   0.70395   0.15886   1.00000  Uiso   1.00
C047   C     0.75188   0.76453   0.15692   1.00000  Uiso   1.00
C048   C     0.75090   0.87722   0.15661   1.00000  Uiso   1.00
C049   C     0.65085   0.93268   0.15715   1.00000  Uiso   1.00
C050   C     0.85326   0.71205   0.15592   1.00000  Uiso   1.00
C051   C     0.95246   0.76773   0.15535   1.00000  Uiso   1.00
C052   C     0.85102   0.93344   0.15584   1.00000  Uiso   1.00
C053   C     0.15274   0.87915   0.15537   1.00000  Uiso   1.00
C054   C     0.95184   0.87913   0.15556   1.00000  Uiso   1.00
N001   N     0.44538   0.38380   0.15709   1.00000  Uiso   1.00
N002   N     0.44539   0.59526   0.15785   1.00000  Uiso   1.00
N003   N     0.65928   0.38395   0.15730   1.00000  Uiso   1.00
N004   N     0.65899   0.59488   0.16057   1.00000  Uiso   1.00
N005   N     0.57204   0.53002   0.31162   1.00000  Uiso   1.00
Fe001  Fe    0.55186   0.48908   0.17110   1.00000  Uiso   1.00
O001   O     0.56574   0.47917   0.37503   1.00000  Uiso   1.00
O002   O     0.60750   0.62014   0.30798   1.00000  Uiso   1.00
O003   O     0.54141   0.46802   0.26554   1.00000  Uiso   1.00
H001   H     0.59041   0.53454   0.40567   1.00000  Uiso   1.00
loop_
_geom_bond_atom_site_label_1
_geom_bond_atom_site_label_2
_geom_bond_distance
_geom_bond_site_symmetry_2
_ccdc_geom_bond_type
C001   C002    1.434   .     D
C001   C018    1.434   1_455 S
C001   C037    1.416   1_545 S
C002   C003    1.419   .     S
C002   C005    1.435   .     S
C003   C004    1.429   .     D
C003   C008    1.426   .     S
C004   C019    1.430   1_455 S
C004   C021    1.420   .     S
C005   C006    1.439   .     S
C005   C041    1.427   1_545 D
C006   C007    1.435   .     S
C006   C009    1.434   .     D
C007   C008    1.430   .     S
C007   C012    1.445   .     D
C008   C025    1.418   .     D
C009   C010    1.441   .     S
C009   C045    1.447   1_545 S
C010   C011    1.460   .     D
C010   C013    1.440   .     S
C011   C012    1.451   .     S
C011   C016    1.450   .     S
C012   N001    1.388   .     S
C013   C014    1.434   .     D
C013   C049    1.447   1_545 S
C014   C015    1.435   .     S
C014   C017    1.439   .     S
C015   C016    1.445   .     S
C015   C020    1.431   .     D
C016   N003    1.389   .     D
C017   C018    1.436   .     S
C017   C052    1.428   1_545 D
C018   C001    1.434   1_655 S
C018   C019    1.419   .     D
C019   C004    1.430   1_655 S
C019   C020    1.426   .     S
C020   C031    1.419   .     S
C021   C022    1.419   .     D
C021   C032    1.419   1_455 S
C022   C023    1.417   .     S
C022   C025    1.421   .     S
C023   C024    1.419   .     D
C023   C028    1.422   .     S
C024   C033    1.419   1_455 S
C024   C035    1.420   .     S
C025   C026    1.408   .     S
C026   C027    1.431   .     S
C026   N001    1.376   .     D
C027   C028    1.408   .     S
C027   N002    1.377   .     D
C028   C038    1.419   .     D
C029   C030    1.430   .     S
C029   C031    1.408   .     D
C029   N003    1.376   .     S
C030   C034    1.408   .     S
C030   N004    1.378   .     D
C031   C032    1.422   .     S
C032   C021    1.419   1_655 S
C032   C033    1.417   .     D
C033   C024    1.419   1_655 S
C033   C034    1.422   .     S
C034   C050    1.418   .     D
C035   C036    1.430   .     S
C035   C051    1.429   1_455 D
C036   C038    1.426   .     S
C036   C053    1.418   .     D
C037   C001    1.416   1_565 S
C037   C053    1.434   .     S
C037   C054    1.434   1_455 D
C038   C039    1.431   .     S
C039   C040    1.434   .     S
C039   C042    1.445   .     D
C040   C041    1.439   .     S
C040   C045    1.434   .     D
C041   C005    1.427   1_565 D
C041   C053    1.435   .     S
C042   C043    1.450   .     S
C042   N002    1.389   .     S
C043   C044    1.460   .     S
C043   C046    1.450   .     D
C044   C045    1.440   .     S
C044   C049    1.441   .     D
C045   C009    1.447   1_565 S
C046   C047    1.445   .     S
C046   N004    1.391   .     S
C047   C048    1.435   .     D
C047   C050    1.430   .     S
C048   C049    1.434   .     S
C048   C052    1.440   .     S
C049   C013    1.447   1_565 S
C050   C051    1.426   .     S
C051   C035    1.429   1_655 D
C051   C054    1.419   .     S
C052   C017    1.428   1_565 D
C052   C054    1.435   .     S
C054   C037    1.434   1_655 D
N001   Fe001   1.908   .     S
N002   Fe001   1.914   .     S
N003   Fe001   1.914   .     S
N004   Fe001   1.909   .     S
N005   O001    1.425   .     S
N005   O002    1.232   .     D
N005   O003    1.272   .     S
Fe001  O003    1.911   .     S
O001   H001    0.983   .     S
