data_e+0.0-opt
_audit_creation_date              2024-12-22
_audit_creation_method            'Materials Studio'
_symmetry_space_group_name_H-M    'P1'
_symmetry_Int_Tables_number       1
_symmetry_cell_setting            triclinic
loop_
_symmetry_equiv_pos_as_xyz
  x,y,z
_cell_length_a                    12.4727
_cell_length_b                    12.7357
_cell_length_c                    19.9866
_cell_angle_alpha                 90.0000
_cell_angle_beta                  90.0000
_cell_angle_gamma                 90.0000
loop_
_atom_site_label
_atom_site_type_symbol
_atom_site_fract_x
_atom_site_fract_y
_atom_site_fract_z
_atom_site_U_iso_or_equiv
_atom_site_adp_type
_atom_site_occupancy
C001   C     0.05201   0.04498   0.15462   1.00000  Uiso   1.00
C002   C     0.15247   0.09977   0.15430   1.00000  Uiso   1.00
C003   C     0.15182   0.21115   0.15336   1.00000  Uiso   1.00
C004   C     0.05200   0.26621   0.15285   1.00000  Uiso   1.00
C005   C     0.25327   0.04544   0.15507   1.00000  Uiso   1.00
C006   C     0.35341   0.10157   0.15549   1.00000  Uiso   1.00
C007   C     0.35234   0.21425   0.15486   1.00000  Uiso   1.00
C008   C     0.25104   0.26683   0.15350   1.00000  Uiso   1.00
C009   C     0.45350   0.04621   0.15670   1.00000  Uiso   1.00
C010   C     0.55210   0.10514   0.15730   1.00000  Uiso   1.00
C011   C     0.55209   0.21980   0.15774   1.00000  Uiso   1.00
C012   C     0.45023   0.27481   0.15675   1.00000  Uiso   1.00
C013   C     0.65060   0.04617   0.15701   1.00000  Uiso   1.00
C014   C     0.75068   0.10155   0.15591   1.00000  Uiso   1.00
C015   C     0.75166   0.21425   0.15549   1.00000  Uiso   1.00
C016   C     0.65381   0.27484   0.15723   1.00000  Uiso   1.00
C017   C     0.85075   0.04536   0.15543   1.00000  Uiso   1.00
C018   C     0.95157   0.09973   0.15450   1.00000  Uiso   1.00
C019   C     0.95213   0.21113   0.15365   1.00000  Uiso   1.00
C020   C     0.85299   0.26684   0.15418   1.00000  Uiso   1.00
C021   C     0.05199   0.37773   0.15232   1.00000  Uiso   1.00
C022   C     0.15038   0.43370   0.15221   1.00000  Uiso   1.00
C023   C     0.15036   0.54501   0.15271   1.00000  Uiso   1.00
C024   C     0.05207   0.60103   0.15325   1.00000  Uiso   1.00
C025   C     0.24917   0.37816   0.15291   1.00000  Uiso   1.00
C026   C     0.34710   0.43316   0.15463   1.00000  Uiso   1.00
C027   C     0.34716   0.54553   0.15459   1.00000  Uiso   1.00
C028   C     0.24924   0.60057   0.15361   1.00000  Uiso   1.00
C029   C     0.75709   0.43334   0.15639   1.00000  Uiso   1.00
C030   C     0.75697   0.54558   0.15741   1.00000  Uiso   1.00
C031   C     0.85485   0.37821   0.15412   1.00000  Uiso   1.00
C032   C     0.95374   0.43376   0.15301   1.00000  Uiso   1.00
C033   C     0.95367   0.54507   0.15351   1.00000  Uiso   1.00
C034   C     0.85490   0.60060   0.15534   1.00000  Uiso   1.00
C035   C     0.05207   0.71253   0.15431   1.00000  Uiso   1.00
C036   C     0.15193   0.76762   0.15457   1.00000  Uiso   1.00
C037   C     0.05205   0.93376   0.15510   1.00000  Uiso   1.00
C038   C     0.25110   0.71194   0.15444   1.00000  Uiso   1.00
C039   C     0.35241   0.76458   0.15557   1.00000  Uiso   1.00
C040   C     0.35340   0.87723   0.15602   1.00000  Uiso   1.00
C041   C     0.25332   0.93336   0.15543   1.00000  Uiso   1.00
C042   C     0.45030   0.70400   0.15707   1.00000  Uiso   1.00
C043   C     0.55209   0.75890   0.15871   1.00000  Uiso   1.00
C044   C     0.55204   0.87353   0.15790   1.00000  Uiso   1.00
C045   C     0.45354   0.93255   0.15696   1.00000  Uiso   1.00
C046   C     0.65379   0.70370   0.15899   1.00000  Uiso   1.00
C047   C     0.75166   0.76430   0.15707   1.00000  Uiso   1.00
C048   C     0.75066   0.87704   0.15678   1.00000  Uiso   1.00
C049   C     0.65062   0.93247   0.15741   1.00000  Uiso   1.00
C050   C     0.85303   0.71187   0.15599   1.00000  Uiso   1.00
C051   C     0.95224   0.76758   0.15528   1.00000  Uiso   1.00
C052   C     0.85078   0.93326   0.15593   1.00000  Uiso   1.00
C053   C     0.15249   0.87899   0.15509   1.00000  Uiso   1.00
C054   C     0.95161   0.87896   0.15549   1.00000  Uiso   1.00
N001   N     0.44511   0.38371   0.15741   1.00000  Uiso   1.00
N002   N     0.44506   0.59510   0.15668   1.00000  Uiso   1.00
N003   N     0.65899   0.38396   0.15821   1.00000  Uiso   1.00
N004   N     0.65880   0.59465   0.16077   1.00000  Uiso   1.00
N005   N     0.57532   0.53222   0.31127   1.00000  Uiso   1.00
Fe001  Fe    0.55142   0.48889   0.17149   1.00000  Uiso   1.00
O001   O     0.55775   0.48530   0.37591   1.00000  Uiso   1.00
O002   O     0.63075   0.61243   0.30732   1.00000  Uiso   1.00
O003   O     0.53472   0.47489   0.26560   1.00000  Uiso   1.00
H001   H     0.59337   0.53641   0.40529   1.00000  Uiso   1.00
loop_
_geom_bond_atom_site_label_1
_geom_bond_atom_site_label_2
_geom_bond_distance
_geom_bond_site_symmetry_2
_ccdc_geom_bond_type
C001   C002    1.434   .     D
C001   C018    1.434   1_455 S
C001   C037    1.416   1_545 S
C002   C003    1.419   .     S
C002   C005    1.435   .     S
C003   C004    1.429   .     D
C003   C008    1.426   .     S
C004   C019    1.430   1_455 S
C004   C021    1.420   .     S
C005   C006    1.439   .     S
C005   C041    1.427   1_545 D
C006   C007    1.435   .     S
C006   C009    1.434   .     D
C007   C008    1.430   .     S
C007   C012    1.445   .     D
C008   C025    1.418   .     D
C009   C010    1.441   .     S
C009   C045    1.447   1_545 S
C010   C011    1.460   .     D
C010   C013    1.440   .     S
C011   C012    1.451   .     S
C011   C016    1.450   .     S
C012   N001    1.389   .     S
C013   C014    1.434   .     D
C013   C049    1.448   1_545 S
C014   C015    1.435   .     S
C014   C017    1.439   .     S
C015   C016    1.444   .     S
C015   C020    1.431   .     D
C016   N003    1.391   .     D
C017   C018    1.436   .     S
C017   C052    1.428   1_545 D
C018   C001    1.434   1_655 S
C018   C019    1.419   .     D
C019   C004    1.430   1_655 S
C019   C020    1.426   .     S
C020   C031    1.419   .     S
C021   C022    1.419   .     D
C021   C032    1.418   1_455 S
C022   C023    1.418   .     S
C022   C025    1.421   .     S
C023   C024    1.418   .     D
C023   C028    1.422   .     S
C024   C033    1.419   1_455 S
C024   C035    1.420   .     S
C025   C026    1.408   .     S
C026   C027    1.431   .     S
C026   N001    1.376   .     D
C027   C028    1.408   .     S
C027   N002    1.375   .     D
C028   C038    1.419   .     D
C029   C030    1.430   .     S
C029   C031    1.408   .     D
C029   N003    1.376   .     S
C030   C034    1.409   .     S
C030   N004    1.376   .     D
C031   C032    1.422   .     S
C032   C021    1.418   1_655 S
C032   C033    1.418   .     D
C033   C024    1.419   1_655 S
C033   C034    1.421   .     S
C034   C050    1.417   .     D
C035   C036    1.430   .     S
C035   C051    1.429   1_455 D
C036   C038    1.426   .     S
C036   C053    1.418   .     D
C037   C001    1.416   1_565 S
C037   C053    1.434   .     S
C037   C054    1.434   1_455 D
C038   C039    1.431   .     S
C039   C040    1.435   .     S
C039   C042    1.445   .     D
C040   C041    1.439   .     S
C040   C045    1.434   .     D
C041   C005    1.427   1_565 D
C041   C053    1.436   .     S
C042   C043    1.450   .     S
C042   N002    1.388   .     S
C043   C044    1.460   .     S
C043   C046    1.450   .     D
C044   C045    1.440   .     S
C044   C049    1.441   .     D
C045   C009    1.447   1_565 S
C046   C047    1.445   .     S
C046   N004    1.391   .     S
C047   C048    1.436   .     D
C047   C050    1.430   .     S
C048   C049    1.434   .     S
C048   C052    1.440   .     S
C049   C013    1.448   1_565 S
C050   C051    1.426   .     S
C051   C035    1.429   1_655 D
C051   C054    1.419   .     S
C052   C017    1.428   1_565 D
C052   C054    1.435   .     S
C054   C037    1.434   1_655 D
N001   Fe001   1.906   .     S
N002   Fe001   1.918   .     S
N003   Fe001   1.912   .     S
N004   Fe001   1.912   .     S
N005   O001    1.440   .     S
N005   O002    1.236   .     D
N005   O003    1.274   .     S
Fe001  O003    1.901   .     S
O001   H001    0.983   .     S
