data_e+0.4-opt
_audit_creation_date              2024-12-22
_audit_creation_method            'Materials Studio'
_symmetry_space_group_name_H-M    'P1'
_symmetry_Int_Tables_number       1
_symmetry_cell_setting            triclinic
loop_
_symmetry_equiv_pos_as_xyz
  x,y,z
_cell_length_a                    12.4760
_cell_length_b                    12.7392
_cell_length_c                    19.9920
_cell_angle_alpha                 90.0000
_cell_angle_beta                  90.0000
_cell_angle_gamma                 90.0000
loop_
_atom_site_label
_atom_site_type_symbol
_atom_site_fract_x
_atom_site_fract_y
_atom_site_fract_z
_atom_site_U_iso_or_equiv
_atom_site_adp_type
_atom_site_occupancy
C001   C     0.04910   0.04445   0.15607   1.00000  Uiso   1.00
C002   C     0.14958   0.09928   0.15565   1.00000  Uiso   1.00
C003   C     0.14904   0.21065   0.15430   1.00000  Uiso   1.00
C004   C     0.04916   0.26574   0.15373   1.00000  Uiso   1.00
C005   C     0.25038   0.04493   0.15656   1.00000  Uiso   1.00
C006   C     0.35051   0.10112   0.15739   1.00000  Uiso   1.00
C007   C     0.34957   0.21379   0.15646   1.00000  Uiso   1.00
C008   C     0.24827   0.26638   0.15420   1.00000  Uiso   1.00
C009   C     0.45056   0.04569   0.15907   1.00000  Uiso   1.00
C010   C     0.54909   0.10464   0.16026   1.00000  Uiso   1.00
C011   C     0.54908   0.21936   0.16116   1.00000  Uiso   1.00
C012   C     0.44746   0.27454   0.15882   1.00000  Uiso   1.00
C013   C     0.64761   0.04568   0.15981   1.00000  Uiso   1.00
C014   C     0.74772   0.10108   0.15871   1.00000  Uiso   1.00
C015   C     0.74875   0.21377   0.15878   1.00000  Uiso   1.00
C016   C     0.65086   0.27439   0.16146   1.00000  Uiso   1.00
C017   C     0.84781   0.04486   0.15758   1.00000  Uiso   1.00
C018   C     0.94866   0.09923   0.15642   1.00000  Uiso   1.00
C019   C     0.94931   0.21062   0.15551   1.00000  Uiso   1.00
C020   C     0.85014   0.26632   0.15671   1.00000  Uiso   1.00
C021   C     0.04917   0.37721   0.15223   1.00000  Uiso   1.00
C022   C     0.14746   0.43330   0.15155   1.00000  Uiso   1.00
C023   C     0.14736   0.54451   0.15158   1.00000  Uiso   1.00
C024   C     0.04903   0.60055   0.15216   1.00000  Uiso   1.00
C025   C     0.24641   0.37774   0.15286   1.00000  Uiso   1.00
C026   C     0.34422   0.43281   0.15495   1.00000  Uiso   1.00
C027   C     0.34397   0.54489   0.15560   1.00000  Uiso   1.00
C028   C     0.24631   0.60006   0.15322   1.00000  Uiso   1.00
C029   C     0.75442   0.43281   0.15879   1.00000  Uiso   1.00
C030   C     0.75416   0.54474   0.15799   1.00000  Uiso   1.00
C031   C     0.85206   0.37766   0.15575   1.00000  Uiso   1.00
C032   C     0.95087   0.43327   0.15307   1.00000  Uiso   1.00
C033   C     0.95071   0.54448   0.15294   1.00000  Uiso   1.00
C034   C     0.85175   0.59998   0.15514   1.00000  Uiso   1.00
C035   C     0.04899   0.71200   0.15363   1.00000  Uiso   1.00
C036   C     0.14885   0.76709   0.15451   1.00000  Uiso   1.00
C037   C     0.04904   0.93323   0.15605   1.00000  Uiso   1.00
C038   C     0.24806   0.71140   0.15469   1.00000  Uiso   1.00
C039   C     0.34933   0.76399   0.15696   1.00000  Uiso   1.00
C040   C     0.35042   0.87665   0.15755   1.00000  Uiso   1.00
C041   C     0.25032   0.93284   0.15664   1.00000  Uiso   1.00
C042   C     0.44721   0.70342   0.15959   1.00000  Uiso   1.00
C043   C     0.54905   0.75842   0.16083   1.00000  Uiso   1.00
C044   C     0.54905   0.87308   0.16011   1.00000  Uiso   1.00
C045   C     0.45052   0.93202   0.15911   1.00000  Uiso   1.00
C046   C     0.65060   0.70321   0.16001   1.00000  Uiso   1.00
C047   C     0.74856   0.76376   0.15786   1.00000  Uiso   1.00
C048   C     0.74762   0.87650   0.15835   1.00000  Uiso   1.00
C049   C     0.64760   0.93197   0.15964   1.00000  Uiso   1.00
C050   C     0.84992   0.71131   0.15584   1.00000  Uiso   1.00
C051   C     0.94910   0.76702   0.15508   1.00000  Uiso   1.00
C052   C     0.84776   0.93275   0.15744   1.00000  Uiso   1.00
C053   C     0.14949   0.87845   0.15575   1.00000  Uiso   1.00
C054   C     0.94857   0.87842   0.15621   1.00000  Uiso   1.00
N001   N     0.44212   0.38333   0.15865   1.00000  Uiso   1.00
N002   N     0.44214   0.59444   0.16038   1.00000  Uiso   1.00
N003   N     0.65625   0.38340   0.16373   1.00000  Uiso   1.00
N004   N     0.65560   0.59398   0.16092   1.00000  Uiso   1.00
N005   N     0.54106   0.49978   0.26597   1.00000  Uiso   1.00
O001   O     0.64047   0.50938   0.30402   1.00000  Uiso   1.00
Fe001  Fe    0.54895   0.49047   0.17395   1.00000  Uiso   1.00
H001   H     0.67904   0.44626   0.29028   1.00000  Uiso   1.00
H002   H     0.50134   0.56612   0.28197   1.00000  Uiso   1.00
loop_
_geom_bond_atom_site_label_1
_geom_bond_atom_site_label_2
_geom_bond_distance
_geom_bond_site_symmetry_2
_ccdc_geom_bond_type
C001   C002    1.435   .     D
C001   C018    1.434   1_455 S
C001   C037    1.417   1_545 S
C002   C003    1.419   .     S
C002   C005    1.436   .     S
C003   C004    1.430   .     D
C003   C008    1.427   .     S
C004   C019    1.430   1_455 S
C004   C021    1.420   .     S
C005   C006    1.440   .     S
C005   C041    1.428   1_545 D
C006   C007    1.436   .     S
C006   C009    1.435   .     D
C007   C008    1.431   .     S
C007   C012    1.447   .     D
C008   C025    1.419   .     D
C009   C010    1.441   .     S
C009   C045    1.448   1_545 S
C010   C011    1.462   .     D
C010   C013    1.440   .     S
C011   C012    1.451   .     S
C011   C016    1.450   .     S
C012   N001    1.387   .     S
C013   C014    1.435   .     D
C013   C049    1.448   1_545 S
C014   C015    1.436   .     S
C014   C017    1.440   .     S
C015   C016    1.446   .     S
C015   C020    1.432   .     D
C016   N003    1.391   .     D
C017   C018    1.436   .     S
C017   C052    1.428   1_545 D
C018   C001    1.434   1_655 S
C018   C019    1.419   .     D
C019   C004    1.430   1_655 S
C019   C020    1.426   .     S
C020   C031    1.419   .     S
C021   C022    1.419   .     D
C021   C032    1.419   1_455 S
C022   C023    1.417   .     S
C022   C025    1.423   .     S
C023   C024    1.419   .     D
C023   C028    1.423   .     S
C024   C033    1.420   1_455 S
C024   C035    1.420   .     S
C025   C026    1.408   .     S
C026   C027    1.428   .     S
C026   N001    1.376   .     D
C027   C028    1.407   .     S
C027   N002    1.381   .     D
C028   C038    1.419   .     D
C029   C030    1.426   .     S
C029   C031    1.408   .     D
C029   N003    1.381   .     S
C030   C034    1.407   .     S
C030   N004    1.382   .     D
C031   C032    1.423   .     S
C032   C021    1.419   1_655 S
C032   C033    1.417   .     D
C033   C024    1.420   1_655 S
C033   C034    1.423   .     S
C034   C050    1.419   .     D
C035   C036    1.430   .     S
C035   C051    1.430   1_455 D
C036   C038    1.427   .     S
C036   C053    1.419   .     D
C037   C001    1.417   1_565 S
C037   C053    1.434   .     S
C037   C054    1.435   1_455 D
C038   C039    1.431   .     S
C039   C040    1.435   .     S
C039   C042    1.445   .     D
C040   C041    1.440   .     S
C040   C045    1.435   .     D
C041   C005    1.428   1_565 D
C041   C053    1.436   .     S
C042   C043    1.451   .     S
C042   N002    1.390   .     S
C043   C044    1.461   .     S
C043   C046    1.449   .     D
C044   C045    1.441   .     S
C044   C049    1.440   .     D
C045   C009    1.448   1_565 S
C046   C047    1.446   .     S
C046   N004    1.393   .     S
C047   C048    1.436   .     D
C047   C050    1.431   .     S
C048   C049    1.434   .     S
C048   C052    1.440   .     S
C049   C013    1.448   1_565 S
C050   C051    1.427   .     S
C051   C035    1.430   1_655 D
C051   C054    1.419   .     S
C052   C017    1.428   1_565 D
C052   C054    1.436   .     S
C054   C037    1.435   1_655 D
N001   Fe001   1.932   .     S
N002   Fe001   1.898   .     S
N003   Fe001   1.922   .     S
N004   Fe001   1.891   .     S
N005   O001    1.460   .     S
N005   Fe001   1.846   .     S
N005   H002    1.031   .     S
O001   H001    0.977   .     S
