data_e-0.8-opt
_audit_creation_date              2024-12-22
_audit_creation_method            'Materials Studio'
_symmetry_space_group_name_H-M    'P1'
_symmetry_Int_Tables_number       1
_symmetry_cell_setting            triclinic
loop_
_symmetry_equiv_pos_as_xyz
  x,y,z
_cell_length_a                    12.4760
_cell_length_b                    12.7392
_cell_length_c                    19.9920
_cell_angle_alpha                 90.0000
_cell_angle_beta                  90.0000
_cell_angle_gamma                 90.0000
loop_
_atom_site_label
_atom_site_type_symbol
_atom_site_fract_x
_atom_site_fract_y
_atom_site_fract_z
_atom_site_U_iso_or_equiv
_atom_site_adp_type
_atom_site_occupancy
C001   C     0.04918   0.04436   0.15599   1.00000  Uiso   1.00
C002   C     0.14969   0.09928   0.15560   1.00000  Uiso   1.00
C003   C     0.14924   0.21064   0.15423   1.00000  Uiso   1.00
C004   C     0.04931   0.26575   0.15362   1.00000  Uiso   1.00
C005   C     0.25044   0.04497   0.15647   1.00000  Uiso   1.00
C006   C     0.35060   0.10121   0.15727   1.00000  Uiso   1.00
C007   C     0.34978   0.21382   0.15636   1.00000  Uiso   1.00
C008   C     0.24846   0.26642   0.15409   1.00000  Uiso   1.00
C009   C     0.45062   0.04563   0.15889   1.00000  Uiso   1.00
C010   C     0.54918   0.10451   0.16009   1.00000  Uiso   1.00
C011   C     0.54921   0.21932   0.16104   1.00000  Uiso   1.00
C012   C     0.44785   0.27457   0.15867   1.00000  Uiso   1.00
C013   C     0.64767   0.04561   0.15960   1.00000  Uiso   1.00
C014   C     0.74782   0.10105   0.15849   1.00000  Uiso   1.00
C015   C     0.74892   0.21360   0.15864   1.00000  Uiso   1.00
C016   C     0.65099   0.27430   0.16169   1.00000  Uiso   1.00
C017   C     0.84790   0.04478   0.15742   1.00000  Uiso   1.00
C018   C     0.94874   0.09915   0.15632   1.00000  Uiso   1.00
C019   C     0.94947   0.21052   0.15540   1.00000  Uiso   1.00
C020   C     0.85030   0.26620   0.15654   1.00000  Uiso   1.00
C021   C     0.04932   0.37709   0.15208   1.00000  Uiso   1.00
C022   C     0.14771   0.43326   0.15139   1.00000  Uiso   1.00
C023   C     0.14747   0.54453   0.15131   1.00000  Uiso   1.00
C024   C     0.04901   0.60056   0.15193   1.00000  Uiso   1.00
C025   C     0.24662   0.37778   0.15268   1.00000  Uiso   1.00
C026   C     0.34464   0.43304   0.15449   1.00000  Uiso   1.00
C027   C     0.34410   0.54497   0.15538   1.00000  Uiso   1.00
C028   C     0.24619   0.60016   0.15290   1.00000  Uiso   1.00
C029   C     0.75428   0.43263   0.15832   1.00000  Uiso   1.00
C030   C     0.75398   0.54440   0.15677   1.00000  Uiso   1.00
C031   C     0.85224   0.37744   0.15536   1.00000  Uiso   1.00
C032   C     0.95087   0.43311   0.15274   1.00000  Uiso   1.00
C033   C     0.95064   0.54442   0.15259   1.00000  Uiso   1.00
C034   C     0.85180   0.59988   0.15443   1.00000  Uiso   1.00
C035   C     0.04894   0.71190   0.15342   1.00000  Uiso   1.00
C036   C     0.14878   0.76712   0.15436   1.00000  Uiso   1.00
C037   C     0.04904   0.93325   0.15595   1.00000  Uiso   1.00
C038   C     0.24796   0.71144   0.15453   1.00000  Uiso   1.00
C039   C     0.34918   0.76416   0.15677   1.00000  Uiso   1.00
C040   C     0.35036   0.87666   0.15731   1.00000  Uiso   1.00
C041   C     0.25030   0.93286   0.15648   1.00000  Uiso   1.00
C042   C     0.44707   0.70354   0.15971   1.00000  Uiso   1.00
C043   C     0.54903   0.75837   0.16047   1.00000  Uiso   1.00
C044   C     0.54905   0.87315   0.15983   1.00000  Uiso   1.00
C045   C     0.45053   0.93205   0.15890   1.00000  Uiso   1.00
C046   C     0.65037   0.70318   0.15908   1.00000  Uiso   1.00
C047   C     0.74849   0.76370   0.15725   1.00000  Uiso   1.00
C048   C     0.74762   0.87636   0.15805   1.00000  Uiso   1.00
C049   C     0.64762   0.93195   0.15936   1.00000  Uiso   1.00
C050   C     0.84988   0.71118   0.15526   1.00000  Uiso   1.00
C051   C     0.94904   0.76696   0.15481   1.00000  Uiso   1.00
C052   C     0.84779   0.93266   0.15727   1.00000  Uiso   1.00
C053   C     0.14949   0.87845   0.15562   1.00000  Uiso   1.00
C054   C     0.94855   0.87836   0.15608   1.00000  Uiso   1.00
N001   N     0.44272   0.38364   0.15778   1.00000  Uiso   1.00
N002   N     0.44185   0.59479   0.16089   1.00000  Uiso   1.00
N003   N     0.65637   0.38322   0.16405   1.00000  Uiso   1.00
N004   N     0.65549   0.59367   0.15885   1.00000  Uiso   1.00
N005   N     0.54785   0.50873   0.26510   1.00000  Uiso   1.00
O001   O     0.63541   0.50675   0.30770   1.00000  Uiso   1.00
Fe001  Fe    0.54896   0.49120   0.17708   1.00000  Uiso   1.00
H001   H     0.67988   0.44768   0.29268   1.00000  Uiso   1.00
H002   H     0.49570   0.55922   0.28880   1.00000  Uiso   1.00
loop_
_geom_bond_atom_site_label_1
_geom_bond_atom_site_label_2
_geom_bond_distance
_geom_bond_site_symmetry_2
_ccdc_geom_bond_type
C001   C002    1.436   .     D
C001   C018    1.434   1_455 S
C001   C037    1.415   1_545 S
C002   C003    1.419   .     S
C002   C005    1.435   .     S
C003   C004    1.431   .     D
C003   C008    1.427   .     S
C004   C019    1.431   1_455 S
C004   C021    1.419   .     S
C005   C006    1.441   .     S
C005   C041    1.428   1_545 D
C006   C007    1.435   .     S
C006   C009    1.435   .     D
C007   C008    1.431   .     S
C007   C012    1.448   .     D
C008   C025    1.419   .     D
C009   C010    1.441   .     S
C009   C045    1.447   1_545 S
C010   C011    1.463   .     D
C010   C013    1.440   .     S
C011   C012    1.448   .     S
C011   C016    1.450   .     S
C012   N001    1.391   .     S
C013   C014    1.436   .     D
C013   C049    1.448   1_545 S
C014   C015    1.434   .     S
C014   C017    1.440   .     S
C015   C016    1.447   .     S
C015   C020    1.432   .     D
C016   N003    1.390   .     D
C017   C018    1.436   .     S
C017   C052    1.428   1_545 D
C018   C001    1.434   1_655 S
C018   C019    1.419   .     D
C019   C004    1.431   1_655 S
C019   C020    1.426   .     S
C020   C031    1.418   .     S
C021   C022    1.421   .     D
C021   C032    1.421   1_455 S
C022   C023    1.417   .     S
C022   C025    1.422   .     S
C023   C024    1.421   .     D
C023   C028    1.421   .     S
C024   C033    1.421   1_455 S
C024   C035    1.419   .     S
C025   C026    1.411   .     S
C026   C027    1.426   .     S
C026   N001    1.378   .     D
C027   C028    1.410   .     S
C027   N002    1.379   .     D
C028   C038    1.418   .     D
C029   C030    1.424   .     S
C029   C031    1.411   .     D
C029   N003    1.379   .     S
C030   C034    1.411   .     S
C030   N004    1.380   .     D
C031   C032    1.421   .     S
C032   C021    1.421   1_655 S
C032   C033    1.418   .     D
C033   C024    1.421   1_655 S
C033   C034    1.422   .     S
C034   C050    1.418   .     D
C035   C036    1.431   .     S
C035   C051    1.430   1_455 D
C036   C038    1.426   .     S
C036   C053    1.419   .     D
C037   C001    1.415   1_565 S
C037   C053    1.435   .     S
C037   C054    1.435   1_455 D
C038   C039    1.431   .     S
C039   C040    1.433   .     S
C039   C042    1.446   .     D
C040   C041    1.439   .     S
C040   C045    1.436   .     D
C041   C005    1.428   1_565 D
C041   C053    1.436   .     S
C042   C043    1.451   .     S
C042   N002    1.387   .     S
C043   C044    1.462   .     S
C043   C046    1.447   .     D
C044   C045    1.440   .     S
C044   C049    1.440   .     D
C045   C009    1.447   1_565 S
C046   C047    1.447   .     S
C046   N004    1.397   .     S
C047   C048    1.435   .     D
C047   C050    1.432   .     S
C048   C049    1.435   .     S
C048   C052    1.441   .     S
C049   C013    1.448   1_565 S
C050   C051    1.427   .     S
C051   C035    1.430   1_655 D
C051   C054    1.419   .     S
C052   C017    1.428   1_565 D
C052   C054    1.435   .     S
C054   C037    1.435   1_655 D
N001   Fe001   1.945   .     S
N002   Fe001   1.906   .     S
N003   Fe001   1.938   .     S
N004   Fe001   1.898   .     S
N005   O001    1.385   .     S
N005   Fe001   1.774   .     S
N005   H002    1.030   .     S
O001   H001    0.982   .     S
