data_e+0.6-opt
_audit_creation_date              2024-12-22
_audit_creation_method            'Materials Studio'
_symmetry_space_group_name_H-M    'P1'
_symmetry_Int_Tables_number       1
_symmetry_cell_setting            triclinic
loop_
_symmetry_equiv_pos_as_xyz
  x,y,z
_cell_length_a                    12.4760
_cell_length_b                    12.7392
_cell_length_c                    19.9920
_cell_angle_alpha                 90.0000
_cell_angle_beta                  90.0000
_cell_angle_gamma                 90.0000
loop_
_atom_site_label
_atom_site_type_symbol
_atom_site_fract_x
_atom_site_fract_y
_atom_site_fract_z
_atom_site_U_iso_or_equiv
_atom_site_adp_type
_atom_site_occupancy
C001   C     0.04910   0.04443   0.15609   1.00000  Uiso   1.00
C002   C     0.14956   0.09925   0.15568   1.00000  Uiso   1.00
C003   C     0.14903   0.21062   0.15432   1.00000  Uiso   1.00
C004   C     0.04918   0.26570   0.15375   1.00000  Uiso   1.00
C005   C     0.25037   0.04489   0.15658   1.00000  Uiso   1.00
C006   C     0.35050   0.10106   0.15738   1.00000  Uiso   1.00
C007   C     0.34956   0.21376   0.15643   1.00000  Uiso   1.00
C008   C     0.24829   0.26635   0.15418   1.00000  Uiso   1.00
C009   C     0.45053   0.04567   0.15908   1.00000  Uiso   1.00
C010   C     0.54909   0.10463   0.16027   1.00000  Uiso   1.00
C011   C     0.54909   0.21931   0.16116   1.00000  Uiso   1.00
C012   C     0.44744   0.27449   0.15873   1.00000  Uiso   1.00
C013   C     0.64764   0.04566   0.15983   1.00000  Uiso   1.00
C014   C     0.74773   0.10103   0.15871   1.00000  Uiso   1.00
C015   C     0.74878   0.21375   0.15878   1.00000  Uiso   1.00
C016   C     0.65089   0.27434   0.16149   1.00000  Uiso   1.00
C017   C     0.84782   0.04482   0.15759   1.00000  Uiso   1.00
C018   C     0.94868   0.09920   0.15643   1.00000  Uiso   1.00
C019   C     0.94935   0.21058   0.15553   1.00000  Uiso   1.00
C020   C     0.85014   0.26628   0.15670   1.00000  Uiso   1.00
C021   C     0.04919   0.37722   0.15224   1.00000  Uiso   1.00
C022   C     0.14746   0.43329   0.15155   1.00000  Uiso   1.00
C023   C     0.14736   0.54450   0.15154   1.00000  Uiso   1.00
C024   C     0.04902   0.60050   0.15214   1.00000  Uiso   1.00
C025   C     0.24642   0.37771   0.15282   1.00000  Uiso   1.00
C026   C     0.34427   0.43274   0.15476   1.00000  Uiso   1.00
C027   C     0.34401   0.54493   0.15546   1.00000  Uiso   1.00
C028   C     0.24630   0.60008   0.15312   1.00000  Uiso   1.00
C029   C     0.75440   0.43273   0.15873   1.00000  Uiso   1.00
C030   C     0.75413   0.54471   0.15788   1.00000  Uiso   1.00
C031   C     0.85209   0.37760   0.15570   1.00000  Uiso   1.00
C032   C     0.95088   0.43324   0.15305   1.00000  Uiso   1.00
C033   C     0.95071   0.54445   0.15291   1.00000  Uiso   1.00
C034   C     0.85174   0.59997   0.15507   1.00000  Uiso   1.00
C035   C     0.04898   0.71200   0.15362   1.00000  Uiso   1.00
C036   C     0.14880   0.76707   0.15451   1.00000  Uiso   1.00
C037   C     0.04903   0.93320   0.15606   1.00000  Uiso   1.00
C038   C     0.24805   0.71138   0.15466   1.00000  Uiso   1.00
C039   C     0.34929   0.76397   0.15695   1.00000  Uiso   1.00
C040   C     0.35040   0.87665   0.15756   1.00000  Uiso   1.00
C041   C     0.25030   0.93283   0.15666   1.00000  Uiso   1.00
C042   C     0.44716   0.70342   0.15963   1.00000  Uiso   1.00
C043   C     0.54905   0.75841   0.16090   1.00000  Uiso   1.00
C044   C     0.54905   0.87303   0.16015   1.00000  Uiso   1.00
C045   C     0.45048   0.93198   0.15913   1.00000  Uiso   1.00
C046   C     0.65060   0.70320   0.16000   1.00000  Uiso   1.00
C047   C     0.74857   0.76371   0.15784   1.00000  Uiso   1.00
C048   C     0.74761   0.87649   0.15836   1.00000  Uiso   1.00
C049   C     0.64763   0.93193   0.15967   1.00000  Uiso   1.00
C050   C     0.84990   0.71128   0.15580   1.00000  Uiso   1.00
C051   C     0.94911   0.76700   0.15507   1.00000  Uiso   1.00
C052   C     0.84776   0.93273   0.15744   1.00000  Uiso   1.00
C053   C     0.14947   0.87843   0.15577   1.00000  Uiso   1.00
C054   C     0.94858   0.87839   0.15622   1.00000  Uiso   1.00
N001   N     0.44205   0.38328   0.15840   1.00000  Uiso   1.00
N002   N     0.44207   0.59445   0.16042   1.00000  Uiso   1.00
N003   N     0.65635   0.38335   0.16381   1.00000  Uiso   1.00
N004   N     0.65561   0.59391   0.16088   1.00000  Uiso   1.00
N005   N     0.54158   0.50086   0.26579   1.00000  Uiso   1.00
O001   O     0.63999   0.50895   0.30459   1.00000  Uiso   1.00
Fe001  Fe    0.54890   0.49068   0.17438   1.00000  Uiso   1.00
H001   H     0.67967   0.44723   0.28942   1.00000  Uiso   1.00
H002   H     0.50081   0.56588   0.28286   1.00000  Uiso   1.00
loop_
_geom_bond_atom_site_label_1
_geom_bond_atom_site_label_2
_geom_bond_distance
_geom_bond_site_symmetry_2
_ccdc_geom_bond_type
C001   C002    1.435   .     D
C001   C018    1.434   1_455 S
C001   C037    1.417   1_545 S
C002   C003    1.419   .     S
C002   C005    1.436   .     S
C003   C004    1.430   .     D
C003   C008    1.427   .     S
C004   C019    1.430   1_455 S
C004   C021    1.421   .     S
C005   C006    1.440   .     S
C005   C041    1.428   1_545 D
C006   C007    1.436   .     S
C006   C009    1.434   .     D
C007   C008    1.431   .     S
C007   C012    1.446   .     D
C008   C025    1.419   .     D
C009   C010    1.441   .     S
C009   C045    1.448   1_545 S
C010   C011    1.461   .     D
C010   C013    1.441   .     S
C011   C012    1.451   .     S
C011   C016    1.451   .     S
C012   N001    1.388   .     S
C013   C014    1.434   .     D
C013   C049    1.449   1_545 S
C014   C015    1.436   .     S
C014   C017    1.440   .     S
C015   C016    1.446   .     S
C015   C020    1.431   .     D
C016   N003    1.391   .     D
C017   C018    1.437   .     S
C017   C052    1.428   1_545 D
C018   C001    1.434   1_655 S
C018   C019    1.419   .     D
C019   C004    1.430   1_655 S
C019   C020    1.427   .     S
C020   C031    1.418   .     S
C021   C022    1.419   .     D
C021   C032    1.419   1_455 S
C022   C023    1.417   .     S
C022   C025    1.423   .     S
C023   C024    1.419   .     D
C023   C028    1.423   .     S
C024   C033    1.419   1_455 S
C024   C035    1.421   .     S
C025   C026    1.408   .     S
C026   C027    1.429   .     S
C026   N001    1.375   .     D
C027   C028    1.408   .     S
C027   N002    1.380   .     D
C028   C038    1.418   .     D
C029   C030    1.427   .     S
C029   C031    1.408   .     D
C029   N003    1.379   .     S
C030   C034    1.408   .     S
C030   N004    1.381   .     D
C031   C032    1.423   .     S
C032   C021    1.419   1_655 S
C032   C033    1.417   .     D
C033   C024    1.419   1_655 S
C033   C034    1.424   .     S
C034   C050    1.418   .     D
C035   C036    1.429   .     S
C035   C051    1.430   1_455 D
C036   C038    1.427   .     S
C036   C053    1.419   .     D
C037   C001    1.417   1_565 S
C037   C053    1.434   .     S
C037   C054    1.435   1_455 D
C038   C039    1.430   .     S
C039   C040    1.436   .     S
C039   C042    1.445   .     D
C040   C041    1.440   .     S
C040   C045    1.434   .     D
C041   C005    1.428   1_565 D
C041   C053    1.436   .     S
C042   C043    1.452   .     S
C042   N002    1.390   .     S
C043   C044    1.460   .     S
C043   C046    1.449   .     D
C044   C045    1.441   .     S
C044   C049    1.441   .     D
C045   C009    1.448   1_565 S
C046   C047    1.446   .     S
C046   N004    1.394   .     S
C047   C048    1.437   .     D
C047   C050    1.430   .     S
C048   C049    1.434   .     S
C048   C052    1.440   .     S
C049   C013    1.449   1_565 S
C050   C051    1.427   .     S
C051   C035    1.430   1_655 D
C051   C054    1.419   .     S
C052   C017    1.428   1_565 D
C052   C054    1.436   .     S
C054   C037    1.435   1_655 D
N001   Fe001   1.937   .     S
N002   Fe001   1.898   .     S
N003   Fe001   1.926   .     S
N004   Fe001   1.891   .     S
N005   O001    1.456   .     S
N005   Fe001   1.834   .     S
N005   H002    1.030   .     S
O001   H001    0.977   .     S
