data_e-0.4-opt
_audit_creation_date              2024-12-22
_audit_creation_method            'Materials Studio'
_symmetry_space_group_name_H-M    'P1'
_symmetry_Int_Tables_number       1
_symmetry_cell_setting            triclinic
loop_
_symmetry_equiv_pos_as_xyz
  x,y,z
_cell_length_a                    12.4760
_cell_length_b                    12.7392
_cell_length_c                    19.9920
_cell_angle_alpha                 90.0000
_cell_angle_beta                  90.0000
_cell_angle_gamma                 90.0000
loop_
_atom_site_label
_atom_site_type_symbol
_atom_site_fract_x
_atom_site_fract_y
_atom_site_fract_z
_atom_site_U_iso_or_equiv
_atom_site_adp_type
_atom_site_occupancy
C001   C     0.04913   0.04431   0.15602   1.00000  Uiso   1.00
C002   C     0.14965   0.09926   0.15562   1.00000  Uiso   1.00
C003   C     0.14915   0.21062   0.15425   1.00000  Uiso   1.00
C004   C     0.04922   0.26579   0.15367   1.00000  Uiso   1.00
C005   C     0.25038   0.04492   0.15654   1.00000  Uiso   1.00
C006   C     0.35052   0.10117   0.15734   1.00000  Uiso   1.00
C007   C     0.34963   0.21364   0.15637   1.00000  Uiso   1.00
C008   C     0.24832   0.26635   0.15414   1.00000  Uiso   1.00
C009   C     0.45061   0.04555   0.15900   1.00000  Uiso   1.00
C010   C     0.54914   0.10447   0.16014   1.00000  Uiso   1.00
C011   C     0.54913   0.21928   0.16093   1.00000  Uiso   1.00
C012   C     0.44765   0.27447   0.15859   1.00000  Uiso   1.00
C013   C     0.64759   0.04555   0.15974   1.00000  Uiso   1.00
C014   C     0.74779   0.10110   0.15863   1.00000  Uiso   1.00
C015   C     0.74885   0.21354   0.15868   1.00000  Uiso   1.00
C016   C     0.65091   0.27431   0.16137   1.00000  Uiso   1.00
C017   C     0.84786   0.04480   0.15756   1.00000  Uiso   1.00
C018   C     0.94866   0.09917   0.15638   1.00000  Uiso   1.00
C019   C     0.94934   0.21054   0.15546   1.00000  Uiso   1.00
C020   C     0.85024   0.26622   0.15665   1.00000  Uiso   1.00
C021   C     0.04922   0.37705   0.15224   1.00000  Uiso   1.00
C022   C     0.14759   0.43324   0.15153   1.00000  Uiso   1.00
C023   C     0.14742   0.54449   0.15154   1.00000  Uiso   1.00
C024   C     0.04903   0.60060   0.15220   1.00000  Uiso   1.00
C025   C     0.24644   0.37774   0.15277   1.00000  Uiso   1.00
C026   C     0.34439   0.43295   0.15460   1.00000  Uiso   1.00
C027   C     0.34403   0.54481   0.15541   1.00000  Uiso   1.00
C028   C     0.24623   0.60006   0.15312   1.00000  Uiso   1.00
C029   C     0.75436   0.43275   0.15851   1.00000  Uiso   1.00
C030   C     0.75409   0.54445   0.15748   1.00000  Uiso   1.00
C031   C     0.85218   0.37754   0.15568   1.00000  Uiso   1.00
C032   C     0.95085   0.43316   0.15310   1.00000  Uiso   1.00
C033   C     0.95065   0.54443   0.15300   1.00000  Uiso   1.00
C034   C     0.85183   0.59989   0.15505   1.00000  Uiso   1.00
C035   C     0.04897   0.71185   0.15362   1.00000  Uiso   1.00
C036   C     0.14886   0.76707   0.15448   1.00000  Uiso   1.00
C037   C     0.04904   0.93327   0.15602   1.00000  Uiso   1.00
C038   C     0.24798   0.71140   0.15465   1.00000  Uiso   1.00
C039   C     0.34925   0.76413   0.15686   1.00000  Uiso   1.00
C040   C     0.35036   0.87655   0.15745   1.00000  Uiso   1.00
C041   C     0.25030   0.93279   0.15659   1.00000  Uiso   1.00
C042   C     0.44716   0.70341   0.15958   1.00000  Uiso   1.00
C043   C     0.54905   0.75836   0.16063   1.00000  Uiso   1.00
C044   C     0.54905   0.87313   0.16001   1.00000  Uiso   1.00
C045   C     0.45057   0.93205   0.15904   1.00000  Uiso   1.00
C046   C     0.65047   0.70316   0.15959   1.00000  Uiso   1.00
C047   C     0.74855   0.76380   0.15773   1.00000  Uiso   1.00
C048   C     0.74764   0.87633   0.15835   1.00000  Uiso   1.00
C049   C     0.64758   0.93198   0.15959   1.00000  Uiso   1.00
C050   C     0.84994   0.71122   0.15578   1.00000  Uiso   1.00
C051   C     0.94905   0.76696   0.15510   1.00000  Uiso   1.00
C052   C     0.84779   0.93266   0.15747   1.00000  Uiso   1.00
C053   C     0.14952   0.87840   0.15571   1.00000  Uiso   1.00
C054   C     0.94853   0.87835   0.15623   1.00000  Uiso   1.00
N001   N     0.44238   0.38327   0.15787   1.00000  Uiso   1.00
N002   N     0.44206   0.59467   0.16035   1.00000  Uiso   1.00
N003   N     0.65630   0.38314   0.16340   1.00000  Uiso   1.00
N004   N     0.65555   0.59388   0.15966   1.00000  Uiso   1.00
N005   N     0.54568   0.50516   0.26464   1.00000  Uiso   1.00
O001   O     0.63899   0.51066   0.30436   1.00000  Uiso   1.00
Fe001  Fe    0.54902   0.49074   0.17496   1.00000  Uiso   1.00
H001   H     0.67767   0.44579   0.29406   1.00000  Uiso   1.00
H002   H     0.49821   0.56280   0.28515   1.00000  Uiso   1.00
loop_
_geom_bond_atom_site_label_1
_geom_bond_atom_site_label_2
_geom_bond_distance
_geom_bond_site_symmetry_2
_ccdc_geom_bond_type
C001   C002    1.436   .     D
C001   C018    1.435   1_455 S
C001   C037    1.415   1_545 S
C002   C003    1.419   .     S
C002   C005    1.435   .     S
C003   C004    1.431   .     D
C003   C008    1.426   .     S
C004   C019    1.432   1_455 S
C004   C021    1.418   .     S
C005   C006    1.440   .     S
C005   C041    1.428   1_545 D
C006   C007    1.433   .     S
C006   C009    1.436   .     D
C007   C008    1.432   .     S
C007   C012    1.448   .     D
C008   C025    1.420   .     D
C009   C010    1.440   .     S
C009   C045    1.446   1_545 S
C010   C011    1.463   .     D
C010   C013    1.440   .     S
C011   C012    1.449   .     S
C011   C016    1.450   .     S
C012   N001    1.388   .     S
C013   C014    1.437   .     D
C013   C049    1.447   1_545 S
C014   C015    1.433   .     S
C014   C017    1.440   .     S
C015   C016    1.448   .     S
C015   C020    1.433   .     D
C016   N003    1.389   .     D
C017   C018    1.436   .     S
C017   C052    1.429   1_545 D
C018   C001    1.435   1_655 S
C018   C019    1.419   .     D
C019   C004    1.432   1_655 S
C019   C020    1.426   .     S
C020   C031    1.418   .     S
C021   C022    1.421   .     D
C021   C032    1.420   1_455 S
C022   C023    1.417   .     S
C022   C025    1.422   .     S
C023   C024    1.421   .     D
C023   C028    1.422   .     S
C024   C033    1.421   1_455 S
C024   C035    1.417   .     S
C025   C026    1.410   .     S
C026   C027    1.425   .     S
C026   N001    1.378   .     D
C027   C028    1.409   .     S
C027   N002    1.382   .     D
C028   C038    1.419   .     D
C029   C030    1.423   .     S
C029   C031    1.410   .     D
C029   N003    1.381   .     S
C030   C034    1.410   .     S
C030   N004    1.382   .     D
C031   C032    1.421   .     S
C032   C021    1.420   1_655 S
C032   C033    1.418   .     D
C033   C024    1.421   1_655 S
C033   C034    1.422   .     S
C034   C050    1.419   .     D
C035   C036    1.431   .     S
C035   C051    1.431   1_455 D
C036   C038    1.426   .     S
C036   C053    1.419   .     D
C037   C001    1.415   1_565 S
C037   C053    1.435   .     S
C037   C054    1.436   1_455 D
C038   C039    1.432   .     S
C039   C040    1.432   .     S
C039   C042    1.447   .     D
C040   C041    1.440   .     S
C040   C045    1.437   .     D
C041   C005    1.428   1_565 D
C041   C053    1.436   .     S
C042   C043    1.451   .     S
C042   N002    1.387   .     S
C043   C044    1.462   .     S
C043   C046    1.448   .     D
C044   C045    1.440   .     S
C044   C049    1.440   .     D
C045   C009    1.446   1_565 S
C046   C047    1.448   .     S
C046   N004    1.394   .     S
C047   C048    1.434   .     D
C047   C050    1.432   .     S
C048   C049    1.436   .     S
C048   C052    1.441   .     S
C049   C013    1.447   1_565 S
C050   C051    1.426   .     S
C051   C035    1.431   1_655 D
C051   C054    1.419   .     S
C052   C017    1.429   1_565 D
C052   C054    1.435   .     S
C054   C037    1.436   1_655 D
N001   Fe001   1.939   .     S
N002   Fe001   1.902   .     S
N003   Fe001   1.930   .     S
N004   Fe001   1.894   .     S
N005   O001    1.411   .     S
N005   Fe001   1.803   .     S
N005   H002    1.029   .     S
O001   H001    0.979   .     S
