data_e+0.8-opt
_audit_creation_date              2024-12-22
_audit_creation_method            'Materials Studio'
_symmetry_space_group_name_H-M    'P1'
_symmetry_Int_Tables_number       1
_symmetry_cell_setting            triclinic
loop_
_symmetry_equiv_pos_as_xyz
  x,y,z
_cell_length_a                    12.4760
_cell_length_b                    12.7392
_cell_length_c                    19.9920
_cell_angle_alpha                 90.0000
_cell_angle_beta                  90.0000
_cell_angle_gamma                 90.0000
loop_
_atom_site_label
_atom_site_type_symbol
_atom_site_fract_x
_atom_site_fract_y
_atom_site_fract_z
_atom_site_U_iso_or_equiv
_atom_site_adp_type
_atom_site_occupancy
C001   C     0.04911   0.04441   0.15614   1.00000  Uiso   1.00
C002   C     0.14954   0.09922   0.15573   1.00000  Uiso   1.00
C003   C     0.14903   0.21058   0.15436   1.00000  Uiso   1.00
C004   C     0.04920   0.26567   0.15380   1.00000  Uiso   1.00
C005   C     0.25035   0.04486   0.15662   1.00000  Uiso   1.00
C006   C     0.35048   0.10101   0.15738   1.00000  Uiso   1.00
C007   C     0.34956   0.21372   0.15637   1.00000  Uiso   1.00
C008   C     0.24832   0.26633   0.15415   1.00000  Uiso   1.00
C009   C     0.45049   0.04564   0.15910   1.00000  Uiso   1.00
C010   C     0.54909   0.10462   0.16029   1.00000  Uiso   1.00
C011   C     0.54910   0.21925   0.16113   1.00000  Uiso   1.00
C012   C     0.44745   0.27442   0.15857   1.00000  Uiso   1.00
C013   C     0.64769   0.04563   0.15986   1.00000  Uiso   1.00
C014   C     0.74775   0.10096   0.15871   1.00000  Uiso   1.00
C015   C     0.74883   0.21370   0.15878   1.00000  Uiso   1.00
C016   C     0.65094   0.27428   0.16153   1.00000  Uiso   1.00
C017   C     0.84784   0.04477   0.15761   1.00000  Uiso   1.00
C018   C     0.94871   0.09916   0.15648   1.00000  Uiso   1.00
C019   C     0.94940   0.21053   0.15557   1.00000  Uiso   1.00
C020   C     0.85016   0.26624   0.15670   1.00000  Uiso   1.00
C021   C     0.04922   0.37723   0.15226   1.00000  Uiso   1.00
C022   C     0.14749   0.43328   0.15155   1.00000  Uiso   1.00
C023   C     0.14735   0.54449   0.15148   1.00000  Uiso   1.00
C024   C     0.04902   0.60046   0.15210   1.00000  Uiso   1.00
C025   C     0.24645   0.37767   0.15275   1.00000  Uiso   1.00
C026   C     0.34436   0.43269   0.15446   1.00000  Uiso   1.00
C027   C     0.34406   0.54499   0.15525   1.00000  Uiso   1.00
C028   C     0.24628   0.60012   0.15299   1.00000  Uiso   1.00
C029   C     0.75437   0.43262   0.15862   1.00000  Uiso   1.00
C030   C     0.75409   0.54468   0.15767   1.00000  Uiso   1.00
C031   C     0.85213   0.37752   0.15563   1.00000  Uiso   1.00
C032   C     0.95089   0.43322   0.15301   1.00000  Uiso   1.00
C033   C     0.95070   0.54442   0.15285   1.00000  Uiso   1.00
C034   C     0.85171   0.59996   0.15493   1.00000  Uiso   1.00
C035   C     0.04895   0.71199   0.15360   1.00000  Uiso   1.00
C036   C     0.14874   0.76708   0.15451   1.00000  Uiso   1.00
C037   C     0.04902   0.93317   0.15610   1.00000  Uiso   1.00
C038   C     0.24802   0.71137   0.15463   1.00000  Uiso   1.00
C039   C     0.34921   0.76398   0.15695   1.00000  Uiso   1.00
C040   C     0.35037   0.87667   0.15759   1.00000  Uiso   1.00
C041   C     0.25026   0.93282   0.15669   1.00000  Uiso   1.00
C042   C     0.44708   0.70347   0.15969   1.00000  Uiso   1.00
C043   C     0.54904   0.75842   0.16098   1.00000  Uiso   1.00
C044   C     0.54904   0.87299   0.16021   1.00000  Uiso   1.00
C045   C     0.45043   0.93195   0.15918   1.00000  Uiso   1.00
C046   C     0.65058   0.70320   0.15993   1.00000  Uiso   1.00
C047   C     0.74856   0.76366   0.15778   1.00000  Uiso   1.00
C048   C     0.74761   0.87647   0.15836   1.00000  Uiso   1.00
C049   C     0.64767   0.93190   0.15970   1.00000  Uiso   1.00
C050   C     0.84988   0.71124   0.15572   1.00000  Uiso   1.00
C051   C     0.94911   0.76699   0.15505   1.00000  Uiso   1.00
C052   C     0.84776   0.93270   0.15745   1.00000  Uiso   1.00
C053   C     0.14943   0.87842   0.15580   1.00000  Uiso   1.00
C054   C     0.94858   0.87836   0.15623   1.00000  Uiso   1.00
N001   N     0.44203   0.38322   0.15794   1.00000  Uiso   1.00
N002   N     0.44195   0.59453   0.16047   1.00000  Uiso   1.00
N003   N     0.65647   0.38326   0.16387   1.00000  Uiso   1.00
N004   N     0.65561   0.59381   0.16071   1.00000  Uiso   1.00
N005   N     0.54252   0.50246   0.26549   1.00000  Uiso   1.00
O001   O     0.63934   0.50824   0.30531   1.00000  Uiso   1.00
Fe001  Fe    0.54887   0.49100   0.17497   1.00000  Uiso   1.00
H001   H     0.68028   0.44820   0.28870   1.00000  Uiso   1.00
H002   H     0.50004   0.56523   0.28417   1.00000  Uiso   1.00
loop_
_geom_bond_atom_site_label_1
_geom_bond_atom_site_label_2
_geom_bond_distance
_geom_bond_site_symmetry_2
_ccdc_geom_bond_type
C001   C002    1.434   .     D
C001   C018    1.434   1_455 S
C001   C037    1.417   1_545 S
C002   C003    1.419   .     S
C002   C005    1.436   .     S
C003   C004    1.430   .     D
C003   C008    1.428   .     S
C004   C019    1.430   1_455 S
C004   C021    1.422   .     S
C005   C006    1.440   .     S
C005   C041    1.427   1_545 D
C006   C007    1.436   .     S
C006   C009    1.434   .     D
C007   C008    1.431   .     S
C007   C012    1.446   .     D
C008   C025    1.419   .     D
C009   C010    1.442   .     S
C009   C045    1.448   1_545 S
C010   C011    1.460   .     D
C010   C013    1.442   .     S
C011   C012    1.451   .     S
C011   C016    1.451   .     S
C012   N001    1.388   .     S
C013   C014    1.434   .     D
C013   C049    1.449   1_545 S
C014   C015    1.436   .     S
C014   C017    1.439   .     S
C015   C016    1.446   .     S
C015   C020    1.431   .     D
C016   N003    1.391   .     D
C017   C018    1.437   .     S
C017   C052    1.428   1_545 D
C018   C001    1.434   1_655 S
C018   C019    1.419   .     D
C019   C004    1.430   1_655 S
C019   C020    1.427   .     S
C020   C031    1.418   .     S
C021   C022    1.419   .     D
C021   C032    1.419   1_455 S
C022   C023    1.417   .     S
C022   C025    1.424   .     S
C023   C024    1.419   .     D
C023   C028    1.424   .     S
C024   C033    1.419   1_455 S
C024   C035    1.421   .     S
C025   C026    1.409   .     S
C026   C027    1.431   .     S
C026   N001    1.374   .     D
C027   C028    1.408   .     S
C027   N002    1.379   .     D
C028   C038    1.418   .     D
C029   C030    1.428   .     S
C029   C031    1.408   .     D
C029   N003    1.378   .     S
C030   C034    1.408   .     S
C030   N004    1.380   .     D
C031   C032    1.423   .     S
C032   C021    1.419   1_655 S
C032   C033    1.417   .     D
C033   C024    1.419   1_655 S
C033   C034    1.424   .     S
C034   C050    1.418   .     D
C035   C036    1.429   .     S
C035   C051    1.430   1_455 D
C036   C038    1.428   .     S
C036   C053    1.419   .     D
C037   C001    1.417   1_565 S
C037   C053    1.434   .     S
C037   C054    1.434   1_455 D
C038   C039    1.430   .     S
C039   C040    1.436   .     S
C039   C042    1.445   .     D
C040   C041    1.439   .     S
C040   C045    1.434   .     D
C041   C005    1.427   1_565 D
C041   C053    1.436   .     S
C042   C043    1.452   .     S
C042   N002    1.389   .     S
C043   C044    1.460   .     S
C043   C046    1.449   .     D
C044   C045    1.442   .     S
C044   C049    1.441   .     D
C045   C009    1.448   1_565 S
C046   C047    1.445   .     S
C046   N004    1.395   .     S
C047   C048    1.437   .     D
C047   C050    1.430   .     S
C048   C049    1.433   .     S
C048   C052    1.440   .     S
C049   C013    1.449   1_565 S
C050   C051    1.427   .     S
C051   C035    1.430   1_655 D
C051   C054    1.419   .     S
C052   C017    1.428   1_565 D
C052   C054    1.436   .     S
C054   C037    1.434   1_655 D
N001   Fe001   1.944   .     S
N002   Fe001   1.898   .     S
N003   Fe001   1.933   .     S
N004   Fe001   1.889   .     S
N005   O001    1.449   .     S
N005   Fe001   1.817   .     S
N005   H002    1.029   .     S
O001   H001    0.978   .     S
