data_e-1.0-opt
_audit_creation_date              2024-12-22
_audit_creation_method            'Materials Studio'
_symmetry_space_group_name_H-M    'P1'
_symmetry_Int_Tables_number       1
_symmetry_cell_setting            triclinic
loop_
_symmetry_equiv_pos_as_xyz
  x,y,z
_cell_length_a                    12.4760
_cell_length_b                    12.7392
_cell_length_c                    19.9920
_cell_angle_alpha                 90.0000
_cell_angle_beta                  90.0000
_cell_angle_gamma                 90.0000
loop_
_atom_site_label
_atom_site_type_symbol
_atom_site_fract_x
_atom_site_fract_y
_atom_site_fract_z
_atom_site_U_iso_or_equiv
_atom_site_adp_type
_atom_site_occupancy
C001   C     0.04927   0.04458   0.15569   1.00000  Uiso   1.00
C002   C     0.14978   0.09949   0.15539   1.00000  Uiso   1.00
C003   C     0.14936   0.21086   0.15401   1.00000  Uiso   1.00
C004   C     0.04942   0.26593   0.15326   1.00000  Uiso   1.00
C005   C     0.25054   0.04521   0.15629   1.00000  Uiso   1.00
C006   C     0.35071   0.10144   0.15725   1.00000  Uiso   1.00
C007   C     0.34992   0.21412   0.15653   1.00000  Uiso   1.00
C008   C     0.24858   0.26665   0.15406   1.00000  Uiso   1.00
C009   C     0.45070   0.04588   0.15886   1.00000  Uiso   1.00
C010   C     0.54928   0.10470   0.16020   1.00000  Uiso   1.00
C011   C     0.54932   0.21952   0.16152   1.00000  Uiso   1.00
C012   C     0.44800   0.27479   0.15920   1.00000  Uiso   1.00
C013   C     0.64777   0.04583   0.15949   1.00000  Uiso   1.00
C014   C     0.74792   0.10122   0.15838   1.00000  Uiso   1.00
C015   C     0.74904   0.21380   0.15877   1.00000  Uiso   1.00
C016   C     0.65113   0.27443   0.16226   1.00000  Uiso   1.00
C017   C     0.84798   0.04497   0.15711   1.00000  Uiso   1.00
C018   C     0.94883   0.09933   0.15605   1.00000  Uiso   1.00
C019   C     0.94959   0.21071   0.15513   1.00000  Uiso   1.00
C020   C     0.85041   0.26637   0.15642   1.00000  Uiso   1.00
C021   C     0.04942   0.37731   0.15152   1.00000  Uiso   1.00
C022   C     0.14782   0.43345   0.15096   1.00000  Uiso   1.00
C023   C     0.14754   0.54474   0.15078   1.00000  Uiso   1.00
C024   C     0.04905   0.60073   0.15114   1.00000  Uiso   1.00
C025   C     0.24675   0.37800   0.15264   1.00000  Uiso   1.00
C026   C     0.34475   0.43330   0.15488   1.00000  Uiso   1.00
C027   C     0.34416   0.54526   0.15579   1.00000  Uiso   1.00
C028   C     0.24622   0.60041   0.15276   1.00000  Uiso   1.00
C029   C     0.75433   0.43276   0.15844   1.00000  Uiso   1.00
C030   C     0.75398   0.54458   0.15655   1.00000  Uiso   1.00
C031   C     0.85233   0.37759   0.15507   1.00000  Uiso   1.00
C032   C     0.95094   0.43327   0.15207   1.00000  Uiso   1.00
C033   C     0.95067   0.54461   0.15176   1.00000  Uiso   1.00
C034   C     0.85182   0.60007   0.15372   1.00000  Uiso   1.00
C035   C     0.04898   0.71211   0.15270   1.00000  Uiso   1.00
C036   C     0.14881   0.76734   0.15390   1.00000  Uiso   1.00
C037   C     0.04910   0.93344   0.15552   1.00000  Uiso   1.00
C038   C     0.24800   0.71167   0.15435   1.00000  Uiso   1.00
C039   C     0.34921   0.76437   0.15679   1.00000  Uiso   1.00
C040   C     0.35041   0.87691   0.15716   1.00000  Uiso   1.00
C041   C     0.25037   0.93310   0.15623   1.00000  Uiso   1.00
C042   C     0.44707   0.70383   0.16012   1.00000  Uiso   1.00
C043   C     0.54905   0.75860   0.16056   1.00000  Uiso   1.00
C044   C     0.54910   0.87339   0.15969   1.00000  Uiso   1.00
C045   C     0.45058   0.93226   0.15878   1.00000  Uiso   1.00
C046   C     0.65038   0.70343   0.15900   1.00000  Uiso   1.00
C047   C     0.74851   0.76388   0.15676   1.00000  Uiso   1.00
C048   C     0.74766   0.87658   0.15758   1.00000  Uiso   1.00
C049   C     0.64770   0.93214   0.15908   1.00000  Uiso   1.00
C050   C     0.84989   0.71137   0.15451   1.00000  Uiso   1.00
C051   C     0.94908   0.76715   0.15405   1.00000  Uiso   1.00
C052   C     0.84785   0.93285   0.15677   1.00000  Uiso   1.00
C053   C     0.14956   0.87867   0.15525   1.00000  Uiso   1.00
C054   C     0.94861   0.87856   0.15549   1.00000  Uiso   1.00
N001   N     0.44293   0.38408   0.15851   1.00000  Uiso   1.00
N002   N     0.44177   0.59503   0.16182   1.00000  Uiso   1.00
N003   N     0.65652   0.38342   0.16487   1.00000  Uiso   1.00
N004   N     0.65549   0.59380   0.15897   1.00000  Uiso   1.00
N005   N     0.54807   0.50766   0.26639   1.00000  Uiso   1.00
O001   O     0.63189   0.50085   0.31069   1.00000  Uiso   1.00
Fe001  Fe    0.54898   0.49140   0.17885   1.00000  Uiso   1.00
H001   H     0.68256   0.44972   0.29184   1.00000  Uiso   1.00
H002   H     0.49211   0.55166   0.29204   1.00000  Uiso   1.00
loop_
_geom_bond_atom_site_label_1
_geom_bond_atom_site_label_2
_geom_bond_distance
_geom_bond_site_symmetry_2
_ccdc_geom_bond_type
C001   C002    1.436   .     D
C001   C018    1.434   1_455 S
C001   C037    1.416   1_545 S
C002   C003    1.419   .     S
C002   C005    1.435   .     S
C003   C004    1.431   .     D
C003   C008    1.427   .     S
C004   C019    1.431   1_455 S
C004   C021    1.419   .     S
C005   C006    1.441   .     S
C005   C041    1.428   1_545 D
C006   C007    1.436   .     S
C006   C009    1.435   .     D
C007   C008    1.431   .     S
C007   C012    1.448   .     D
C008   C025    1.419   .     D
C009   C010    1.440   .     S
C009   C045    1.447   1_545 S
C010   C011    1.463   .     D
C010   C013    1.440   .     S
C011   C012    1.448   .     S
C011   C016    1.450   .     S
C012   N001    1.394   .     S
C013   C014    1.435   .     D
C013   C049    1.448   1_545 S
C014   C015    1.434   .     S
C014   C017    1.440   .     S
C015   C016    1.447   .     S
C015   C020    1.432   .     D
C016   N003    1.391   .     D
C017   C018    1.436   .     S
C017   C052    1.428   1_545 D
C018   C001    1.434   1_655 S
C018   C019    1.419   .     D
C019   C004    1.431   1_655 S
C019   C020    1.426   .     S
C020   C031    1.417   .     S
C021   C022    1.421   .     D
C021   C032    1.421   1_455 S
C022   C023    1.418   .     S
C022   C025    1.422   .     S
C023   C024    1.421   .     D
C023   C028    1.421   .     S
C024   C033    1.421   1_455 S
C024   C035    1.419   .     S
C025   C026    1.412   .     S
C026   C027    1.426   .     S
C026   N001    1.378   .     D
C027   C028    1.411   .     S
C027   N002    1.378   .     D
C028   C038    1.418   .     D
C029   C030    1.425   .     S
C029   C031    1.412   .     D
C029   N003    1.379   .     S
C030   C034    1.412   .     S
C030   N004    1.380   .     D
C031   C032    1.421   .     S
C032   C021    1.421   1_655 S
C032   C033    1.418   .     D
C033   C024    1.421   1_655 S
C033   C034    1.422   .     S
C034   C050    1.418   .     D
C035   C036    1.431   .     S
C035   C051    1.430   1_455 D
C036   C038    1.426   .     S
C036   C053    1.419   .     D
C037   C001    1.416   1_565 S
C037   C053    1.434   .     S
C037   C054    1.435   1_455 D
C038   C039    1.431   .     S
C039   C040    1.434   .     S
C039   C042    1.446   .     D
C040   C041    1.439   .     S
C040   C045    1.435   .     D
C041   C005    1.428   1_565 D
C041   C053    1.436   .     S
C042   C043    1.451   .     S
C042   N002    1.388   .     S
C043   C044    1.462   .     S
C043   C046    1.447   .     D
C044   C045    1.440   .     S
C044   C049    1.440   .     D
C045   C009    1.447   1_565 S
C046   C047    1.447   .     S
C046   N004    1.398   .     S
C047   C048    1.436   .     D
C047   C050    1.432   .     S
C048   C049    1.434   .     S
C048   C052    1.441   .     S
C049   C013    1.448   1_565 S
C050   C051    1.427   .     S
C051   C035    1.430   1_655 D
C051   C054    1.420   .     S
C052   C017    1.428   1_565 D
C052   C054    1.435   .     S
C054   C037    1.435   1_655 D
N001   Fe001   1.946   .     S
N002   Fe001   1.910   .     S
N003   Fe001   1.942   .     S
N004   Fe001   1.904   .     S
N005   O001    1.373   .     S
N005   Fe001   1.762   .     S
N005   H002    1.032   .     S
O001   H001    0.983   .     S
