data_e-0.2-opt
_audit_creation_date              2024-12-22
_audit_creation_method            'Materials Studio'
_symmetry_space_group_name_H-M    'P1'
_symmetry_Int_Tables_number       1
_symmetry_cell_setting            triclinic
loop_
_symmetry_equiv_pos_as_xyz
  x,y,z
_cell_length_a                    12.4760
_cell_length_b                    12.7392
_cell_length_c                    19.9920
_cell_angle_alpha                 90.0000
_cell_angle_beta                  90.0000
_cell_angle_gamma                 90.0000
loop_
_atom_site_label
_atom_site_type_symbol
_atom_site_fract_x
_atom_site_fract_y
_atom_site_fract_z
_atom_site_U_iso_or_equiv
_atom_site_adp_type
_atom_site_occupancy
C001   C     0.04913   0.04435   0.15605   1.00000  Uiso   1.00
C002   C     0.14963   0.09926   0.15564   1.00000  Uiso   1.00
C003   C     0.14912   0.21062   0.15427   1.00000  Uiso   1.00
C004   C     0.04920   0.26577   0.15370   1.00000  Uiso   1.00
C005   C     0.25038   0.04492   0.15655   1.00000  Uiso   1.00
C006   C     0.35052   0.10115   0.15736   1.00000  Uiso   1.00
C007   C     0.34961   0.21368   0.15640   1.00000  Uiso   1.00
C008   C     0.24830   0.26636   0.15416   1.00000  Uiso   1.00
C009   C     0.45060   0.04558   0.15902   1.00000  Uiso   1.00
C010   C     0.54913   0.10451   0.16017   1.00000  Uiso   1.00
C011   C     0.54912   0.21931   0.16096   1.00000  Uiso   1.00
C012   C     0.44760   0.27449   0.15863   1.00000  Uiso   1.00
C013   C     0.64759   0.04558   0.15976   1.00000  Uiso   1.00
C014   C     0.74777   0.10109   0.15866   1.00000  Uiso   1.00
C015   C     0.74882   0.21360   0.15870   1.00000  Uiso   1.00
C016   C     0.65090   0.27433   0.16136   1.00000  Uiso   1.00
C017   C     0.84785   0.04482   0.15758   1.00000  Uiso   1.00
C018   C     0.94866   0.09918   0.15640   1.00000  Uiso   1.00
C019   C     0.94933   0.21056   0.15549   1.00000  Uiso   1.00
C020   C     0.85022   0.26624   0.15667   1.00000  Uiso   1.00
C021   C     0.04921   0.37709   0.15226   1.00000  Uiso   1.00
C022   C     0.14755   0.43326   0.15156   1.00000  Uiso   1.00
C023   C     0.14741   0.54449   0.15157   1.00000  Uiso   1.00
C024   C     0.04904   0.60059   0.15221   1.00000  Uiso   1.00
C025   C     0.24643   0.37774   0.15279   1.00000  Uiso   1.00
C026   C     0.34434   0.43291   0.15468   1.00000  Uiso   1.00
C027   C     0.34401   0.54483   0.15546   1.00000  Uiso   1.00
C028   C     0.24625   0.60006   0.15316   1.00000  Uiso   1.00
C029   C     0.75439   0.43277   0.15856   1.00000  Uiso   1.00
C030   C     0.75412   0.54453   0.15759   1.00000  Uiso   1.00
C031   C     0.85215   0.37757   0.15570   1.00000  Uiso   1.00
C032   C     0.95087   0.43319   0.15311   1.00000  Uiso   1.00
C033   C     0.95067   0.54444   0.15301   1.00000  Uiso   1.00
C034   C     0.85182   0.59991   0.15508   1.00000  Uiso   1.00
C035   C     0.04898   0.71189   0.15365   1.00000  Uiso   1.00
C036   C     0.14886   0.76707   0.15450   1.00000  Uiso   1.00
C037   C     0.04904   0.93326   0.15604   1.00000  Uiso   1.00
C038   C     0.24801   0.71139   0.15467   1.00000  Uiso   1.00
C039   C     0.34928   0.76409   0.15689   1.00000  Uiso   1.00
C040   C     0.35038   0.87657   0.15749   1.00000  Uiso   1.00
C041   C     0.25031   0.93280   0.15662   1.00000  Uiso   1.00
C042   C     0.44718   0.70341   0.15957   1.00000  Uiso   1.00
C043   C     0.54905   0.75837   0.16066   1.00000  Uiso   1.00
C044   C     0.54905   0.87311   0.16003   1.00000  Uiso   1.00
C045   C     0.45056   0.93204   0.15906   1.00000  Uiso   1.00
C046   C     0.65050   0.70317   0.15968   1.00000  Uiso   1.00
C047   C     0.74855   0.76378   0.15776   1.00000  Uiso   1.00
C048   C     0.74763   0.87638   0.15836   1.00000  Uiso   1.00
C049   C     0.64759   0.93197   0.15960   1.00000  Uiso   1.00
C050   C     0.84993   0.71124   0.15580   1.00000  Uiso   1.00
C051   C     0.94907   0.76697   0.15511   1.00000  Uiso   1.00
C052   C     0.84779   0.93268   0.15747   1.00000  Uiso   1.00
C053   C     0.14952   0.87841   0.15574   1.00000  Uiso   1.00
C054   C     0.94854   0.87837   0.15624   1.00000  Uiso   1.00
N001   N     0.44229   0.38328   0.15804   1.00000  Uiso   1.00
N002   N     0.44208   0.59460   0.16033   1.00000  Uiso   1.00
N003   N     0.65630   0.38321   0.16342   1.00000  Uiso   1.00
N004   N     0.65557   0.59389   0.15995   1.00000  Uiso   1.00
N005   N     0.54461   0.50376   0.26485   1.00000  Uiso   1.00
O001   O     0.63949   0.51069   0.30403   1.00000  Uiso   1.00
Fe001  Fe    0.54902   0.49068   0.17458   1.00000  Uiso   1.00
H001   H     0.67780   0.44580   0.29344   1.00000  Uiso   1.00
H002   H     0.49883   0.56353   0.28437   1.00000  Uiso   1.00
loop_
_geom_bond_atom_site_label_1
_geom_bond_atom_site_label_2
_geom_bond_distance
_geom_bond_site_symmetry_2
_ccdc_geom_bond_type
C001   C002    1.436   .     D
C001   C018    1.435   1_455 S
C001   C037    1.415   1_545 S
C002   C003    1.419   .     S
C002   C005    1.435   .     S
C003   C004    1.431   .     D
C003   C008    1.427   .     S
C004   C019    1.431   1_455 S
C004   C021    1.418   .     S
C005   C006    1.440   .     S
C005   C041    1.428   1_545 D
C006   C007    1.434   .     S
C006   C009    1.436   .     D
C007   C008    1.432   .     S
C007   C012    1.448   .     D
C008   C025    1.419   .     D
C009   C010    1.440   .     S
C009   C045    1.446   1_545 S
C010   C011    1.462   .     D
C010   C013    1.440   .     S
C011   C012    1.449   .     S
C011   C016    1.450   .     S
C012   N001    1.388   .     S
C013   C014    1.436   .     D
C013   C049    1.447   1_545 S
C014   C015    1.433   .     S
C014   C017    1.440   .     S
C015   C016    1.447   .     S
C015   C020    1.432   .     D
C016   N003    1.389   .     D
C017   C018    1.436   .     S
C017   C052    1.429   1_545 D
C018   C001    1.435   1_655 S
C018   C019    1.419   .     D
C019   C004    1.431   1_655 S
C019   C020    1.426   .     S
C020   C031    1.418   .     S
C021   C022    1.420   .     D
C021   C032    1.420   1_455 S
C022   C023    1.417   .     S
C022   C025    1.422   .     S
C023   C024    1.420   .     D
C023   C028    1.422   .     S
C024   C033    1.421   1_455 S
C024   C035    1.418   .     S
C025   C026    1.410   .     S
C026   C027    1.426   .     S
C026   N001    1.378   .     D
C027   C028    1.409   .     S
C027   N002    1.382   .     D
C028   C038    1.419   .     D
C029   C030    1.424   .     S
C029   C031    1.409   .     D
C029   N003    1.380   .     S
C030   C034    1.409   .     S
C030   N004    1.382   .     D
C031   C032    1.422   .     S
C032   C021    1.420   1_655 S
C032   C033    1.417   .     D
C033   C024    1.421   1_655 S
C033   C034    1.422   .     S
C034   C050    1.418   .     D
C035   C036    1.431   .     S
C035   C051    1.431   1_455 D
C036   C038    1.426   .     S
C036   C053    1.419   .     D
C037   C001    1.415   1_565 S
C037   C053    1.435   .     S
C037   C054    1.436   1_455 D
C038   C039    1.431   .     S
C039   C040    1.433   .     S
C039   C042    1.446   .     D
C040   C041    1.440   .     S
C040   C045    1.436   .     D
C041   C005    1.428   1_565 D
C041   C053    1.436   .     S
C042   C043    1.451   .     S
C042   N002    1.388   .     S
C043   C044    1.462   .     S
C043   C046    1.448   .     D
C044   C045    1.440   .     S
C044   C049    1.440   .     D
C045   C009    1.446   1_565 S
C046   C047    1.447   .     S
C046   N004    1.394   .     S
C047   C048    1.434   .     D
C047   C050    1.432   .     S
C048   C049    1.435   .     S
C048   C052    1.441   .     S
C049   C013    1.447   1_565 S
C050   C051    1.426   .     S
C051   C035    1.431   1_655 D
C051   C054    1.419   .     S
C052   C017    1.429   1_565 D
C052   C054    1.435   .     S
C054   C037    1.436   1_655 D
N001   Fe001   1.938   .     S
N002   Fe001   1.901   .     S
N003   Fe001   1.928   .     S
N004   Fe001   1.892   .     S
N005   O001    1.422   .     S
N005   Fe001   1.813   .     S
N005   H002    1.029   .     S
O001   H001    0.978   .     S
