data_e+0.0-opt
_audit_creation_date              2024-12-22
_audit_creation_method            'Materials Studio'
_symmetry_space_group_name_H-M    'P1'
_symmetry_Int_Tables_number       1
_symmetry_cell_setting            triclinic
loop_
_symmetry_equiv_pos_as_xyz
  x,y,z
_cell_length_a                    12.4760
_cell_length_b                    12.7392
_cell_length_c                    19.9920
_cell_angle_alpha                 90.0000
_cell_angle_beta                  90.0000
_cell_angle_gamma                 90.0000
loop_
_atom_site_label
_atom_site_type_symbol
_atom_site_fract_x
_atom_site_fract_y
_atom_site_fract_z
_atom_site_U_iso_or_equiv
_atom_site_adp_type
_atom_site_occupancy
C001   C     0.04912   0.04439   0.15606   1.00000  Uiso   1.00
C002   C     0.14962   0.09927   0.15564   1.00000  Uiso   1.00
C003   C     0.14909   0.21063   0.15429   1.00000  Uiso   1.00
C004   C     0.04919   0.26576   0.15372   1.00000  Uiso   1.00
C005   C     0.25038   0.04492   0.15656   1.00000  Uiso   1.00
C006   C     0.35052   0.10114   0.15737   1.00000  Uiso   1.00
C007   C     0.34960   0.21372   0.15642   1.00000  Uiso   1.00
C008   C     0.24829   0.26636   0.15417   1.00000  Uiso   1.00
C009   C     0.45059   0.04562   0.15904   1.00000  Uiso   1.00
C010   C     0.54912   0.10456   0.16020   1.00000  Uiso   1.00
C011   C     0.54911   0.21933   0.16101   1.00000  Uiso   1.00
C012   C     0.44755   0.27450   0.15868   1.00000  Uiso   1.00
C013   C     0.64760   0.04562   0.15978   1.00000  Uiso   1.00
C014   C     0.74775   0.10108   0.15868   1.00000  Uiso   1.00
C015   C     0.74880   0.21366   0.15873   1.00000  Uiso   1.00
C016   C     0.65089   0.27436   0.16137   1.00000  Uiso   1.00
C017   C     0.84784   0.04483   0.15759   1.00000  Uiso   1.00
C018   C     0.94867   0.09920   0.15641   1.00000  Uiso   1.00
C019   C     0.94933   0.21058   0.15550   1.00000  Uiso   1.00
C020   C     0.85019   0.26627   0.15669   1.00000  Uiso   1.00
C021   C     0.04920   0.37713   0.15226   1.00000  Uiso   1.00
C022   C     0.14752   0.43327   0.15157   1.00000  Uiso   1.00
C023   C     0.14739   0.54450   0.15159   1.00000  Uiso   1.00
C024   C     0.04904   0.60057   0.15221   1.00000  Uiso   1.00
C025   C     0.24642   0.37774   0.15282   1.00000  Uiso   1.00
C026   C     0.34429   0.43286   0.15477   1.00000  Uiso   1.00
C027   C     0.34399   0.54486   0.15551   1.00000  Uiso   1.00
C028   C     0.24627   0.60005   0.15319   1.00000  Uiso   1.00
C029   C     0.75441   0.43278   0.15862   1.00000  Uiso   1.00
C030   C     0.75414   0.54460   0.15773   1.00000  Uiso   1.00
C031   C     0.85213   0.37760   0.15573   1.00000  Uiso   1.00
C032   C     0.95087   0.43322   0.15312   1.00000  Uiso   1.00
C033   C     0.95069   0.54446   0.15300   1.00000  Uiso   1.00
C034   C     0.85181   0.59993   0.15511   1.00000  Uiso   1.00
C035   C     0.04899   0.71193   0.15366   1.00000  Uiso   1.00
C036   C     0.14886   0.76708   0.15452   1.00000  Uiso   1.00
C037   C     0.04905   0.93324   0.15605   1.00000  Uiso   1.00
C038   C     0.24803   0.71140   0.15469   1.00000  Uiso   1.00
C039   C     0.34930   0.76405   0.15692   1.00000  Uiso   1.00
C040   C     0.35040   0.87660   0.15751   1.00000  Uiso   1.00
C041   C     0.25032   0.93281   0.15663   1.00000  Uiso   1.00
C042   C     0.44719   0.70341   0.15956   1.00000  Uiso   1.00
C043   C     0.54905   0.75838   0.16071   1.00000  Uiso   1.00
C044   C     0.54905   0.87310   0.16005   1.00000  Uiso   1.00
C045   C     0.45055   0.93203   0.15908   1.00000  Uiso   1.00
C046   C     0.65054   0.70318   0.15978   1.00000  Uiso   1.00
C047   C     0.74856   0.76377   0.15780   1.00000  Uiso   1.00
C048   C     0.74763   0.87643   0.15836   1.00000  Uiso   1.00
C049   C     0.64759   0.93197   0.15962   1.00000  Uiso   1.00
C050   C     0.84993   0.71126   0.15583   1.00000  Uiso   1.00
C051   C     0.94909   0.76699   0.15511   1.00000  Uiso   1.00
C052   C     0.84778   0.93270   0.15747   1.00000  Uiso   1.00
C053   C     0.14951   0.87843   0.15575   1.00000  Uiso   1.00
C054   C     0.94856   0.87839   0.15624   1.00000  Uiso   1.00
N001   N     0.44222   0.38330   0.15824   1.00000  Uiso   1.00
N002   N     0.44210   0.59454   0.16032   1.00000  Uiso   1.00
N003   N     0.65630   0.38328   0.16347   1.00000  Uiso   1.00
N004   N     0.65559   0.59392   0.16027   1.00000  Uiso   1.00
N005   N     0.54344   0.50230   0.26516   1.00000  Uiso   1.00
O001   O     0.63995   0.51059   0.30378   1.00000  Uiso   1.00
Fe001  Fe    0.54900   0.49061   0.17427   1.00000  Uiso   1.00
H001   H     0.67802   0.44580   0.29272   1.00000  Uiso   1.00
H002   H     0.49956   0.56433   0.28353   1.00000  Uiso   1.00
loop_
_geom_bond_atom_site_label_1
_geom_bond_atom_site_label_2
_geom_bond_distance
_geom_bond_site_symmetry_2
_ccdc_geom_bond_type
C001   C002    1.436   .     D
C001   C018    1.435   1_455 S
C001   C037    1.416   1_545 S
C002   C003    1.419   .     S
C002   C005    1.435   .     S
C003   C004    1.431   .     D
C003   C008    1.427   .     S
C004   C019    1.431   1_455 S
C004   C021    1.419   .     S
C005   C006    1.440   .     S
C005   C041    1.428   1_545 D
C006   C007    1.434   .     S
C006   C009    1.435   .     D
C007   C008    1.432   .     S
C007   C012    1.447   .     D
C008   C025    1.419   .     D
C009   C010    1.441   .     S
C009   C045    1.447   1_545 S
C010   C011    1.462   .     D
C010   C013    1.440   .     S
C011   C012    1.450   .     S
C011   C016    1.450   .     S
C012   N001    1.388   .     S
C013   C014    1.436   .     D
C013   C049    1.448   1_545 S
C014   C015    1.434   .     S
C014   C017    1.440   .     S
C015   C016    1.447   .     S
C015   C020    1.432   .     D
C016   N003    1.390   .     D
C017   C018    1.436   .     S
C017   C052    1.428   1_545 D
C018   C001    1.435   1_655 S
C018   C019    1.419   .     D
C019   C004    1.431   1_655 S
C019   C020    1.426   .     S
C020   C031    1.419   .     S
C021   C022    1.420   .     D
C021   C032    1.420   1_455 S
C022   C023    1.417   .     S
C022   C025    1.422   .     S
C023   C024    1.420   .     D
C023   C028    1.423   .     S
C024   C033    1.420   1_455 S
C024   C035    1.419   .     S
C025   C026    1.409   .     S
C026   C027    1.427   .     S
C026   N001    1.377   .     D
C027   C028    1.408   .     S
C027   N002    1.381   .     D
C028   C038    1.419   .     D
C029   C030    1.425   .     S
C029   C031    1.408   .     D
C029   N003    1.380   .     S
C030   C034    1.409   .     S
C030   N004    1.382   .     D
C031   C032    1.422   .     S
C032   C021    1.420   1_655 S
C032   C033    1.417   .     D
C033   C024    1.420   1_655 S
C033   C034    1.422   .     S
C034   C050    1.419   .     D
C035   C036    1.431   .     S
C035   C051    1.430   1_455 D
C036   C038    1.426   .     S
C036   C053    1.419   .     D
C037   C001    1.416   1_565 S
C037   C053    1.435   .     S
C037   C054    1.435   1_455 D
C038   C039    1.431   .     S
C039   C040    1.434   .     S
C039   C042    1.446   .     D
C040   C041    1.439   .     S
C040   C045    1.436   .     D
C041   C005    1.428   1_565 D
C041   C053    1.436   .     S
C042   C043    1.451   .     S
C042   N002    1.388   .     S
C043   C044    1.461   .     S
C043   C046    1.448   .     D
C044   C045    1.440   .     S
C044   C049    1.440   .     D
C045   C009    1.447   1_565 S
C046   C047    1.447   .     S
C046   N004    1.393   .     S
C047   C048    1.435   .     D
C047   C050    1.431   .     S
C048   C049    1.435   .     S
C048   C052    1.441   .     S
C049   C013    1.448   1_565 S
C050   C051    1.426   .     S
C051   C035    1.430   1_655 D
C051   C054    1.419   .     S
C052   C017    1.428   1_565 D
C052   C054    1.435   .     S
C054   C037    1.435   1_655 D
N001   Fe001   1.936   .     S
N002   Fe001   1.900   .     S
N003   Fe001   1.926   .     S
N004   Fe001   1.892   .     S
N005   O001    1.434   .     S
N005   Fe001   1.824   .     S
N005   H002    1.029   .     S
O001   H001    0.978   .     S
