data_e+0.2-opt
_audit_creation_date              2024-12-22
_audit_creation_method            'Materials Studio'
_symmetry_space_group_name_H-M    'P1'
_symmetry_Int_Tables_number       1
_symmetry_cell_setting            triclinic
loop_
_symmetry_equiv_pos_as_xyz
  x,y,z
_cell_length_a                    12.4760
_cell_length_b                    12.7392
_cell_length_c                    19.9920
_cell_angle_alpha                 90.0000
_cell_angle_beta                  90.0000
_cell_angle_gamma                 90.0000
loop_
_atom_site_label
_atom_site_type_symbol
_atom_site_fract_x
_atom_site_fract_y
_atom_site_fract_z
_atom_site_U_iso_or_equiv
_atom_site_adp_type
_atom_site_occupancy
C001   C     0.04911   0.04442   0.15607   1.00000  Uiso   1.00
C002   C     0.14959   0.09927   0.15566   1.00000  Uiso   1.00
C003   C     0.14907   0.21064   0.15430   1.00000  Uiso   1.00
C004   C     0.04917   0.26574   0.15374   1.00000  Uiso   1.00
C005   C     0.25038   0.04492   0.15657   1.00000  Uiso   1.00
C006   C     0.35051   0.10113   0.15738   1.00000  Uiso   1.00
C007   C     0.34958   0.21376   0.15644   1.00000  Uiso   1.00
C008   C     0.24828   0.26637   0.15420   1.00000  Uiso   1.00
C009   C     0.45058   0.04566   0.15906   1.00000  Uiso   1.00
C010   C     0.54910   0.10460   0.16023   1.00000  Uiso   1.00
C011   C     0.54910   0.21935   0.16107   1.00000  Uiso   1.00
C012   C     0.44750   0.27452   0.15875   1.00000  Uiso   1.00
C013   C     0.64760   0.04565   0.15980   1.00000  Uiso   1.00
C014   C     0.74773   0.10108   0.15870   1.00000  Uiso   1.00
C015   C     0.74877   0.21372   0.15876   1.00000  Uiso   1.00
C016   C     0.65088   0.27437   0.16140   1.00000  Uiso   1.00
C017   C     0.84782   0.04484   0.15759   1.00000  Uiso   1.00
C018   C     0.94866   0.09921   0.15643   1.00000  Uiso   1.00
C019   C     0.94931   0.21060   0.15551   1.00000  Uiso   1.00
C020   C     0.85016   0.26629   0.15670   1.00000  Uiso   1.00
C021   C     0.04918   0.37718   0.15226   1.00000  Uiso   1.00
C022   C     0.14748   0.43328   0.15158   1.00000  Uiso   1.00
C023   C     0.14737   0.54451   0.15160   1.00000  Uiso   1.00
C024   C     0.04904   0.60056   0.15220   1.00000  Uiso   1.00
C025   C     0.24641   0.37774   0.15285   1.00000  Uiso   1.00
C026   C     0.34424   0.43283   0.15487   1.00000  Uiso   1.00
C027   C     0.34397   0.54488   0.15557   1.00000  Uiso   1.00
C028   C     0.24629   0.60006   0.15322   1.00000  Uiso   1.00
C029   C     0.75442   0.43280   0.15870   1.00000  Uiso   1.00
C030   C     0.75415   0.54467   0.15785   1.00000  Uiso   1.00
C031   C     0.85209   0.37763   0.15574   1.00000  Uiso   1.00
C032   C     0.95087   0.43324   0.15311   1.00000  Uiso   1.00
C033   C     0.95070   0.54447   0.15298   1.00000  Uiso   1.00
C034   C     0.85178   0.59996   0.15513   1.00000  Uiso   1.00
C035   C     0.04899   0.71197   0.15366   1.00000  Uiso   1.00
C036   C     0.14886   0.76708   0.15452   1.00000  Uiso   1.00
C037   C     0.04904   0.93324   0.15606   1.00000  Uiso   1.00
C038   C     0.24804   0.71140   0.15470   1.00000  Uiso   1.00
C039   C     0.34932   0.76402   0.15695   1.00000  Uiso   1.00
C040   C     0.35041   0.87663   0.15754   1.00000  Uiso   1.00
C041   C     0.25032   0.93283   0.15664   1.00000  Uiso   1.00
C042   C     0.44720   0.70342   0.15957   1.00000  Uiso   1.00
C043   C     0.54905   0.75840   0.16076   1.00000  Uiso   1.00
C044   C     0.54905   0.87309   0.16008   1.00000  Uiso   1.00
C045   C     0.45054   0.93202   0.15910   1.00000  Uiso   1.00
C046   C     0.65057   0.70320   0.15989   1.00000  Uiso   1.00
C047   C     0.74856   0.76377   0.15783   1.00000  Uiso   1.00
C048   C     0.74762   0.87647   0.15836   1.00000  Uiso   1.00
C049   C     0.64759   0.93197   0.15963   1.00000  Uiso   1.00
C050   C     0.84992   0.71129   0.15584   1.00000  Uiso   1.00
C051   C     0.94909   0.76701   0.15511   1.00000  Uiso   1.00
C052   C     0.84776   0.93273   0.15746   1.00000  Uiso   1.00
C053   C     0.14950   0.87844   0.15576   1.00000  Uiso   1.00
C054   C     0.94856   0.87840   0.15624   1.00000  Uiso   1.00
N001   N     0.44215   0.38332   0.15845   1.00000  Uiso   1.00
N002   N     0.44212   0.59449   0.16034   1.00000  Uiso   1.00
N003   N     0.65628   0.38335   0.16357   1.00000  Uiso   1.00
N004   N     0.65560   0.59395   0.16059   1.00000  Uiso   1.00
N005   N     0.54226   0.50095   0.26553   1.00000  Uiso   1.00
O001   O     0.64033   0.51013   0.30373   1.00000  Uiso   1.00
Fe001  Fe    0.54898   0.49054   0.17405   1.00000  Uiso   1.00
H001   H     0.67850   0.44596   0.29154   1.00000  Uiso   1.00
H002   H     0.50045   0.56520   0.28271   1.00000  Uiso   1.00
loop_
_geom_bond_atom_site_label_1
_geom_bond_atom_site_label_2
_geom_bond_distance
_geom_bond_site_symmetry_2
_ccdc_geom_bond_type
C001   C002    1.435   .     D
C001   C018    1.435   1_455 S
C001   C037    1.416   1_545 S
C002   C003    1.419   .     S
C002   C005    1.436   .     S
C003   C004    1.430   .     D
C003   C008    1.427   .     S
C004   C019    1.431   1_455 S
C004   C021    1.420   .     S
C005   C006    1.440   .     S
C005   C041    1.428   1_545 D
C006   C007    1.435   .     S
C006   C009    1.435   .     D
C007   C008    1.431   .     S
C007   C012    1.447   .     D
C008   C025    1.419   .     D
C009   C010    1.441   .     S
C009   C045    1.448   1_545 S
C010   C011    1.462   .     D
C010   C013    1.440   .     S
C011   C012    1.450   .     S
C011   C016    1.450   .     S
C012   N001    1.388   .     S
C013   C014    1.435   .     D
C013   C049    1.448   1_545 S
C014   C015    1.435   .     S
C014   C017    1.440   .     S
C015   C016    1.446   .     S
C015   C020    1.432   .     D
C016   N003    1.391   .     D
C017   C018    1.436   .     S
C017   C052    1.428   1_545 D
C018   C001    1.435   1_655 S
C018   C019    1.419   .     D
C019   C004    1.431   1_655 S
C019   C020    1.426   .     S
C020   C031    1.419   .     S
C021   C022    1.419   .     D
C021   C032    1.419   1_455 S
C022   C023    1.417   .     S
C022   C025    1.423   .     S
C023   C024    1.420   .     D
C023   C028    1.423   .     S
C024   C033    1.420   1_455 S
C024   C035    1.420   .     S
C025   C026    1.409   .     S
C026   C027    1.427   .     S
C026   N001    1.377   .     D
C027   C028    1.408   .     S
C027   N002    1.381   .     D
C028   C038    1.419   .     D
C029   C030    1.425   .     S
C029   C031    1.408   .     D
C029   N003    1.380   .     S
C030   C034    1.408   .     S
C030   N004    1.382   .     D
C031   C032    1.422   .     S
C032   C021    1.419   1_655 S
C032   C033    1.417   .     D
C033   C024    1.420   1_655 S
C033   C034    1.423   .     S
C034   C050    1.419   .     D
C035   C036    1.430   .     S
C035   C051    1.430   1_455 D
C036   C038    1.426   .     S
C036   C053    1.419   .     D
C037   C001    1.416   1_565 S
C037   C053    1.435   .     S
C037   C054    1.435   1_455 D
C038   C039    1.431   .     S
C039   C040    1.435   .     S
C039   C042    1.446   .     D
C040   C041    1.439   .     S
C040   C045    1.435   .     D
C041   C005    1.428   1_565 D
C041   C053    1.436   .     S
C042   C043    1.451   .     S
C042   N002    1.389   .     S
C043   C044    1.461   .     S
C043   C046    1.449   .     D
C044   C045    1.440   .     S
C044   C049    1.440   .     D
C045   C009    1.448   1_565 S
C046   C047    1.446   .     S
C046   N004    1.393   .     S
C047   C048    1.436   .     D
C047   C050    1.431   .     S
C048   C049    1.435   .     S
C048   C052    1.440   .     S
C049   C013    1.448   1_565 S
C050   C051    1.426   .     S
C051   C035    1.430   1_655 D
C051   C054    1.419   .     S
C052   C017    1.428   1_565 D
C052   C054    1.436   .     S
C054   C037    1.435   1_655 D
N001   Fe001   1.934   .     S
N002   Fe001   1.899   .     S
N003   Fe001   1.924   .     S
N004   Fe001   1.891   .     S
N005   O001    1.447   .     S
N005   Fe001   1.836   .     S
N005   H002    1.030   .     S
O001   H001    0.977   .     S
