data_e-0.6-opt
_audit_creation_date              2024-12-22
_audit_creation_method            'Materials Studio'
_symmetry_space_group_name_H-M    'P1'
_symmetry_Int_Tables_number       1
_symmetry_cell_setting            triclinic
loop_
_symmetry_equiv_pos_as_xyz
  x,y,z
_cell_length_a                    12.4760
_cell_length_b                    12.7392
_cell_length_c                    19.9920
_cell_angle_alpha                 90.0000
_cell_angle_beta                  90.0000
_cell_angle_gamma                 90.0000
loop_
_atom_site_label
_atom_site_type_symbol
_atom_site_fract_x
_atom_site_fract_y
_atom_site_fract_z
_atom_site_U_iso_or_equiv
_atom_site_adp_type
_atom_site_occupancy
C001   C     0.04915   0.04432   0.15601   1.00000  Uiso   1.00
C002   C     0.14967   0.09926   0.15562   1.00000  Uiso   1.00
C003   C     0.14919   0.21062   0.15426   1.00000  Uiso   1.00
C004   C     0.04925   0.26577   0.15367   1.00000  Uiso   1.00
C005   C     0.25040   0.04493   0.15652   1.00000  Uiso   1.00
C006   C     0.35056   0.10118   0.15732   1.00000  Uiso   1.00
C007   C     0.34970   0.21371   0.15637   1.00000  Uiso   1.00
C008   C     0.24838   0.26637   0.15413   1.00000  Uiso   1.00
C009   C     0.45062   0.04557   0.15897   1.00000  Uiso   1.00
C010   C     0.54915   0.10448   0.16011   1.00000  Uiso   1.00
C011   C     0.54916   0.21930   0.16093   1.00000  Uiso   1.00
C012   C     0.44774   0.27451   0.15858   1.00000  Uiso   1.00
C013   C     0.64762   0.04556   0.15969   1.00000  Uiso   1.00
C014   C     0.74780   0.10108   0.15858   1.00000  Uiso   1.00
C015   C     0.74886   0.21356   0.15865   1.00000  Uiso   1.00
C016   C     0.65093   0.27432   0.16145   1.00000  Uiso   1.00
C017   C     0.84787   0.04478   0.15752   1.00000  Uiso   1.00
C018   C     0.94869   0.09915   0.15637   1.00000  Uiso   1.00
C019   C     0.94939   0.21053   0.15545   1.00000  Uiso   1.00
C020   C     0.85026   0.26620   0.15661   1.00000  Uiso   1.00
C021   C     0.04926   0.37706   0.15222   1.00000  Uiso   1.00
C022   C     0.14765   0.43323   0.15152   1.00000  Uiso   1.00
C023   C     0.14745   0.54449   0.15148   1.00000  Uiso   1.00
C024   C     0.04902   0.60057   0.15215   1.00000  Uiso   1.00
C025   C     0.24652   0.37776   0.15274   1.00000  Uiso   1.00
C026   C     0.34452   0.43298   0.15451   1.00000  Uiso   1.00
C027   C     0.34409   0.54486   0.15536   1.00000  Uiso   1.00
C028   C     0.24623   0.60008   0.15303   1.00000  Uiso   1.00
C029   C     0.75431   0.43269   0.15840   1.00000  Uiso   1.00
C030   C     0.75403   0.54441   0.15718   1.00000  Uiso   1.00
C031   C     0.85220   0.37749   0.15556   1.00000  Uiso   1.00
C032   C     0.95085   0.43312   0.15300   1.00000  Uiso   1.00
C033   C     0.95064   0.54442   0.15289   1.00000  Uiso   1.00
C034   C     0.85181   0.59987   0.15484   1.00000  Uiso   1.00
C035   C     0.04896   0.71185   0.15358   1.00000  Uiso   1.00
C036   C     0.14883   0.76707   0.15445   1.00000  Uiso   1.00
C037   C     0.04904   0.93325   0.15600   1.00000  Uiso   1.00
C038   C     0.24798   0.71139   0.15461   1.00000  Uiso   1.00
C039   C     0.34923   0.76411   0.15683   1.00000  Uiso   1.00
C040   C     0.35036   0.87657   0.15741   1.00000  Uiso   1.00
C041   C     0.25030   0.93280   0.15656   1.00000  Uiso   1.00
C042   C     0.44713   0.70342   0.15962   1.00000  Uiso   1.00
C043   C     0.54904   0.75833   0.16057   1.00000  Uiso   1.00
C044   C     0.54905   0.87311   0.15996   1.00000  Uiso   1.00
C045   C     0.45056   0.93203   0.15900   1.00000  Uiso   1.00
C046   C     0.65041   0.70313   0.15938   1.00000  Uiso   1.00
C047   C     0.74851   0.76373   0.15758   1.00000  Uiso   1.00
C048   C     0.74762   0.87632   0.15827   1.00000  Uiso   1.00
C049   C     0.64759   0.93195   0.15953   1.00000  Uiso   1.00
C050   C     0.84991   0.71118   0.15562   1.00000  Uiso   1.00
C051   C     0.94904   0.76694   0.15503   1.00000  Uiso   1.00
C052   C     0.84779   0.93264   0.15742   1.00000  Uiso   1.00
C053   C     0.14951   0.87840   0.15569   1.00000  Uiso   1.00
C054   C     0.94853   0.87834   0.15620   1.00000  Uiso   1.00
N001   N     0.44254   0.38343   0.15773   1.00000  Uiso   1.00
N002   N     0.44200   0.59468   0.16052   1.00000  Uiso   1.00
N003   N     0.65630   0.38318   0.16359   1.00000  Uiso   1.00
N004   N     0.65550   0.59374   0.15927   1.00000  Uiso   1.00
N005   N     0.54683   0.50711   0.26458   1.00000  Uiso   1.00
O001   O     0.63761   0.50945   0.30550   1.00000  Uiso   1.00
Fe001  Fe    0.54899   0.49094   0.17579   1.00000  Uiso   1.00
H001   H     0.67827   0.44632   0.29361   1.00000  Uiso   1.00
H002   H     0.49722   0.56155   0.28664   1.00000  Uiso   1.00
loop_
_geom_bond_atom_site_label_1
_geom_bond_atom_site_label_2
_geom_bond_distance
_geom_bond_site_symmetry_2
_ccdc_geom_bond_type
C001   C002    1.436   .     D
C001   C018    1.435   1_455 S
C001   C037    1.415   1_545 S
C002   C003    1.419   .     S
C002   C005    1.435   .     S
C003   C004    1.431   .     D
C003   C008    1.427   .     S
C004   C019    1.431   1_455 S
C004   C021    1.418   .     S
C005   C006    1.440   .     S
C005   C041    1.428   1_545 D
C006   C007    1.434   .     S
C006   C009    1.436   .     D
C007   C008    1.432   .     S
C007   C012    1.448   .     D
C008   C025    1.419   .     D
C009   C010    1.441   .     S
C009   C045    1.446   1_545 S
C010   C011    1.463   .     D
C010   C013    1.440   .     S
C011   C012    1.448   .     S
C011   C016    1.450   .     S
C012   N001    1.389   .     S
C013   C014    1.436   .     D
C013   C049    1.447   1_545 S
C014   C015    1.433   .     S
C014   C017    1.440   .     S
C015   C016    1.447   .     S
C015   C020    1.432   .     D
C016   N003    1.389   .     D
C017   C018    1.436   .     S
C017   C052    1.429   1_545 D
C018   C001    1.435   1_655 S
C018   C019    1.419   .     D
C019   C004    1.431   1_655 S
C019   C020    1.426   .     S
C020   C031    1.418   .     S
C021   C022    1.421   .     D
C021   C032    1.420   1_455 S
C022   C023    1.417   .     S
C022   C025    1.422   .     S
C023   C024    1.421   .     D
C023   C028    1.422   .     S
C024   C033    1.421   1_455 S
C024   C035    1.418   .     S
C025   C026    1.411   .     S
C026   C027    1.425   .     S
C026   N001    1.378   .     D
C027   C028    1.410   .     S
C027   N002    1.380   .     D
C028   C038    1.419   .     D
C029   C030    1.423   .     S
C029   C031    1.410   .     D
C029   N003    1.380   .     S
C030   C034    1.411   .     S
C030   N004    1.381   .     D
C031   C032    1.421   .     S
C032   C021    1.420   1_655 S
C032   C033    1.418   .     D
C033   C024    1.421   1_655 S
C033   C034    1.422   .     S
C034   C050    1.418   .     D
C035   C036    1.431   .     S
C035   C051    1.431   1_455 D
C036   C038    1.426   .     S
C036   C053    1.418   .     D
C037   C001    1.415   1_565 S
C037   C053    1.435   .     S
C037   C054    1.436   1_455 D
C038   C039    1.431   .     S
C039   C040    1.433   .     S
C039   C042    1.447   .     D
C040   C041    1.439   .     S
C040   C045    1.436   .     D
C041   C005    1.428   1_565 D
C041   C053    1.436   .     S
C042   C043    1.451   .     S
C042   N002    1.387   .     S
C043   C044    1.462   .     S
C043   C046    1.447   .     D
C044   C045    1.440   .     S
C044   C049    1.440   .     D
C045   C009    1.446   1_565 S
C046   C047    1.447   .     S
C046   N004    1.395   .     S
C047   C048    1.434   .     D
C047   C050    1.432   .     S
C048   C049    1.435   .     S
C048   C052    1.441   .     S
C049   C013    1.447   1_565 S
C050   C051    1.426   .     S
C051   C035    1.431   1_655 D
C051   C054    1.419   .     S
C052   C017    1.429   1_565 D
C052   C054    1.435   .     S
C054   C037    1.436   1_655 D
N001   Fe001   1.942   .     S
N002   Fe001   1.903   .     S
N003   Fe001   1.933   .     S
N004   Fe001   1.895   .     S
N005   O001    1.397   .     S
N005   Fe001   1.787   .     S
N005   H002    1.029   .     S
O001   H001    0.980   .     S
