data_e+0.6-opt
_audit_creation_date              2024-12-22
_audit_creation_method            'Materials Studio'
_symmetry_space_group_name_H-M    'P1'
_symmetry_Int_Tables_number       1
_symmetry_cell_setting            triclinic
loop_
_symmetry_equiv_pos_as_xyz
  x,y,z
_cell_length_a                    8.3991
_cell_length_b                    8.3991
_cell_length_c                    20.0482
_cell_angle_alpha                 90.0000
_cell_angle_beta                  90.0000
_cell_angle_gamma                 90.0000
loop_
_atom_site_label
_atom_site_type_symbol
_atom_site_fract_x
_atom_site_fract_y
_atom_site_fract_z
_atom_site_U_iso_or_equiv
_atom_site_adp_type
_atom_site_occupancy
C001   C     0.50126   0.06647   0.13916   1.00000  Uiso   1.00
C002   C     0.35457   0.14804   0.13932   1.00000  Uiso   1.00
C003   C     0.64786   0.14824   0.13846   1.00000  Uiso   1.00
C004   C     0.79704   0.89665   0.13871   1.00000  Uiso   1.00
C005   C     0.79676   0.06373   0.13818   1.00000  Uiso   1.00
C006   C     0.91751   0.18439   0.13832   1.00000  Uiso   1.00
C007   C     0.83255   0.33335   0.13895   1.00000  Uiso   1.00
C008   C     0.20592   0.06329   0.13847   1.00000  Uiso   1.00
C009   C     0.08453   0.18404   0.13867   1.00000  Uiso   1.00
C010   C     0.16869   0.33289   0.13960   1.00000  Uiso   1.00
C011   C     0.08706   0.47968   0.13965   1.00000  Uiso   1.00
C012   C     0.16916   0.62594   0.13843   1.00000  Uiso   1.00
C013   C     0.35498   0.81201   0.13806   1.00000  Uiso   1.00
C014   C     0.20656   0.89603   0.13776   1.00000  Uiso   1.00
C015   C     0.08493   0.77476   0.13797   1.00000  Uiso   1.00
C016   C     0.64835   0.81280   0.13989   1.00000  Uiso   1.00
C017   C     0.83296   0.62644   0.14046   1.00000  Uiso   1.00
C018   C     0.91805   0.77525   0.13880   1.00000  Uiso   1.00
C019   C     0.50138   0.89403   0.13923   1.00000  Uiso   1.00
C020   C     0.91445   0.47979   0.14007   1.00000  Uiso   1.00
N001   N     0.66863   0.31220   0.13862   1.00000  Uiso   1.00
N002   N     0.33303   0.31260   0.14017   1.00000  Uiso   1.00
N003   N     0.33406   0.64660   0.13797   1.00000  Uiso   1.00
N004   N     0.66868   0.64801   0.14203   1.00000  Uiso   1.00
N005   N     0.48548   0.47716   0.24003   1.00000  Uiso   1.00
Fe001  Fe    0.49733   0.48210   0.14831   1.00000  Uiso   1.00
O001   O     0.48560   0.62697   0.27507   1.00000  Uiso   1.00
H001   H     0.37946   0.42846   0.25607   1.00000  Uiso   1.00
H002   H     0.57638   0.68169   0.25467   1.00000  Uiso   1.00
loop_
_geom_bond_atom_site_label_1
_geom_bond_atom_site_label_2
_geom_bond_distance
_geom_bond_site_symmetry_2
_ccdc_geom_bond_type
C001   C002    1.410   .     D
C001   C003    1.410   .     S
C001   C019    1.448   1_545 S
C002   C008    1.437   .     S
C002   N002    1.394   .     S
C003   C005    1.438   .     D
C003   N001    1.388   .     S
C004   C005    1.403   1_565 S
C004   C016    1.434   .     D
C004   C018    1.440   .     S
C005   C004    1.403   1_545 S
C005   C006    1.434   .     S
C006   C007    1.440   .     S
C006   C009    1.403   1_655 D
C007   C020    1.409   .     S
C007   N001    1.388   .     D
C008   C009    1.438   .     S
C008   C014    1.405   1_545 D
C009   C006    1.403   1_455 D
C009   C010    1.436   .     S
C010   C011    1.411   .     S
C010   N002    1.391   .     D
C011   C012    1.409   .     S
C011   C020    1.450   1_455 D
C012   C015    1.436   .     S
C012   N003    1.396   .     D
C013   C014    1.432   .     S
C013   C019    1.410   .     D
C013   N003    1.400   .     S
C014   C008    1.405   1_565 D
C014   C015    1.443   .     S
C015   C018    1.402   1_455 D
C016   C019    1.411   .     S
C016   N004    1.395   .     S
C017   C018    1.440   .     S
C017   C020    1.409   .     S
C017   N004    1.392   .     D
C018   C015    1.402   1_655 D
C019   C001    1.448   1_565 S
C020   C011    1.450   1_655 D
N001   Fe001   2.036   .     S
N002   Fe001   1.989   .     S
N003   Fe001   1.958   .     S
N004   Fe001   2.007   .     S
N005   Fe001   1.842   .     S
N005   O001    1.441   .     S
N005   H001    1.031   .     S
O001   H002    0.980   .     S
