data_e-0.4-opt
_audit_creation_date              2024-12-22
_audit_creation_method            'Materials Studio'
_symmetry_space_group_name_H-M    'P1'
_symmetry_Int_Tables_number       1
_symmetry_cell_setting            triclinic
loop_
_symmetry_equiv_pos_as_xyz
  x,y,z
_cell_length_a                    8.3991
_cell_length_b                    8.3991
_cell_length_c                    20.0482
_cell_angle_alpha                 90.0000
_cell_angle_beta                  90.0000
_cell_angle_gamma                 90.0000
loop_
_atom_site_label
_atom_site_type_symbol
_atom_site_fract_x
_atom_site_fract_y
_atom_site_fract_z
_atom_site_U_iso_or_equiv
_atom_site_adp_type
_atom_site_occupancy
C001   C     0.50093   0.06670   0.13894   1.00000  Uiso   1.00
C002   C     0.35421   0.14810   0.13918   1.00000  Uiso   1.00
C003   C     0.64751   0.14845   0.13824   1.00000  Uiso   1.00
C004   C     0.79695   0.89683   0.13851   1.00000  Uiso   1.00
C005   C     0.79641   0.06427   0.13787   1.00000  Uiso   1.00
C006   C     0.91692   0.18489   0.13813   1.00000  Uiso   1.00
C007   C     0.83235   0.33368   0.13895   1.00000  Uiso   1.00
C008   C     0.20553   0.06364   0.13823   1.00000  Uiso   1.00
C009   C     0.08440   0.18432   0.13856   1.00000  Uiso   1.00
C010   C     0.16828   0.33304   0.13962   1.00000  Uiso   1.00
C011   C     0.08687   0.47985   0.13952   1.00000  Uiso   1.00
C012   C     0.16885   0.62625   0.13791   1.00000  Uiso   1.00
C013   C     0.35476   0.81225   0.13745   1.00000  Uiso   1.00
C014   C     0.20629   0.89601   0.13738   1.00000  Uiso   1.00
C015   C     0.08506   0.77497   0.13764   1.00000  Uiso   1.00
C016   C     0.64823   0.81307   0.13977   1.00000  Uiso   1.00
C017   C     0.83289   0.62690   0.14052   1.00000  Uiso   1.00
C018   C     0.91763   0.77560   0.13867   1.00000  Uiso   1.00
C019   C     0.50122   0.89418   0.13889   1.00000  Uiso   1.00
C020   C     0.91423   0.48014   0.14011   1.00000  Uiso   1.00
N001   N     0.66809   0.31259   0.13829   1.00000  Uiso   1.00
N002   N     0.33288   0.31267   0.14000   1.00000  Uiso   1.00
N003   N     0.33388   0.64679   0.13665   1.00000  Uiso   1.00
N004   N     0.66851   0.64832   0.14188   1.00000  Uiso   1.00
N005   N     0.47963   0.48346   0.23858   1.00000  Uiso   1.00
Fe001  Fe    0.49671   0.48161   0.14952   1.00000  Uiso   1.00
O001   O     0.48809   0.62286   0.27574   1.00000  Uiso   1.00
H001   H     0.38960   0.41990   0.26103   1.00000  Uiso   1.00
H002   H     0.57627   0.68224   0.25532   1.00000  Uiso   1.00
loop_
_geom_bond_atom_site_label_1
_geom_bond_atom_site_label_2
_geom_bond_distance
_geom_bond_site_symmetry_2
_ccdc_geom_bond_type
C001   C002    1.409   .     D
C001   C003    1.410   .     S
C001   C019    1.449   1_545 S
C002   C008    1.436   .     S
C002   N002    1.394   .     S
C003   C005    1.437   .     D
C003   N001    1.389   .     S
C004   C005    1.406   1_565 S
C004   C016    1.434   .     D
C004   C018    1.437   .     S
C005   C004    1.406   1_545 S
C005   C006    1.432   .     S
C006   C007    1.438   .     S
C006   C009    1.407   1_655 D
C007   C020    1.410   .     S
C007   N001    1.391   .     D
C008   C009    1.436   .     S
C008   C014    1.408   1_545 D
C009   C006    1.407   1_455 D
C009   C010    1.434   .     S
C010   C011    1.410   .     S
C010   N002    1.393   .     D
C011   C012    1.410   .     S
C011   C020    1.450   1_455 D
C012   C015    1.434   .     S
C012   N003    1.397   .     D
C013   C014    1.432   .     S
C013   C019    1.410   .     D
C013   N003    1.401   .     S
C014   C008    1.408   1_565 D
C014   C015    1.439   .     S
C015   C018    1.406   1_455 D
C016   C019    1.410   .     S
C016   N004    1.395   .     S
C017   C018    1.438   .     S
C017   C020    1.409   .     S
C017   N004    1.393   .     D
C018   C015    1.406   1_655 D
C019   C001    1.449   1_565 S
C020   C011    1.450   1_655 D
N001   Fe001   2.034   .     S
N002   Fe001   1.986   .     S
N003   Fe001   1.965   .     S
N004   Fe001   2.016   .     S
N005   Fe001   1.791   .     S
N005   O001    1.389   .     S
N005   H001    1.029   .     S
O001   H002    0.982   .     S
