data_e-1.0-opt
_audit_creation_date              2024-12-22
_audit_creation_method            'Materials Studio'
_symmetry_space_group_name_H-M    'P1'
_symmetry_Int_Tables_number       1
_symmetry_cell_setting            triclinic
loop_
_symmetry_equiv_pos_as_xyz
  x,y,z
_cell_length_a                    8.3991
_cell_length_b                    8.3991
_cell_length_c                    20.0482
_cell_angle_alpha                 90.0000
_cell_angle_beta                  90.0000
_cell_angle_gamma                 90.0000
loop_
_atom_site_label
_atom_site_type_symbol
_atom_site_fract_x
_atom_site_fract_y
_atom_site_fract_z
_atom_site_U_iso_or_equiv
_atom_site_adp_type
_atom_site_occupancy
C001   C     0.49951   0.06753   0.13850   1.00000  Uiso   1.00
C002   C     0.35270   0.14876   0.13883   1.00000  Uiso   1.00
C003   C     0.64596   0.14931   0.13778   1.00000  Uiso   1.00
C004   C     0.79572   0.89777   0.13789   1.00000  Uiso   1.00
C005   C     0.79493   0.06534   0.13721   1.00000  Uiso   1.00
C006   C     0.91538   0.18593   0.13760   1.00000  Uiso   1.00
C007   C     0.83103   0.33477   0.13877   1.00000  Uiso   1.00
C008   C     0.20396   0.06443   0.13751   1.00000  Uiso   1.00
C009   C     0.08298   0.18514   0.13803   1.00000  Uiso   1.00
C010   C     0.16693   0.33384   0.13960   1.00000  Uiso   1.00
C011   C     0.08565   0.48066   0.13947   1.00000  Uiso   1.00
C012   C     0.16762   0.62701   0.13764   1.00000  Uiso   1.00
C013   C     0.35347   0.81311   0.13689   1.00000  Uiso   1.00
C014   C     0.20491   0.89674   0.13657   1.00000  Uiso   1.00
C015   C     0.08387   0.77577   0.13698   1.00000  Uiso   1.00
C016   C     0.64696   0.81397   0.13951   1.00000  Uiso   1.00
C017   C     0.83174   0.62788   0.14043   1.00000  Uiso   1.00
C018   C     0.91635   0.77660   0.13810   1.00000  Uiso   1.00
C019   C     0.49992   0.89499   0.13845   1.00000  Uiso   1.00
C020   C     0.91299   0.48108   0.14005   1.00000  Uiso   1.00
N001   N     0.66649   0.31374   0.13789   1.00000  Uiso   1.00
N002   N     0.33147   0.31321   0.14013   1.00000  Uiso   1.00
N003   N     0.33265   0.64762   0.13625   1.00000  Uiso   1.00
N004   N     0.66739   0.64926   0.14191   1.00000  Uiso   1.00
N005   N     0.48084   0.48431   0.23841   1.00000  Uiso   1.00
Fe001  Fe    0.49579   0.48196   0.15105   1.00000  Uiso   1.00
O001   O     0.50000   0.61281   0.27906   1.00000  Uiso   1.00
H001   H     0.41487   0.40412   0.26578   1.00000  Uiso   1.00
H002   H     0.57115   0.68591   0.25478   1.00000  Uiso   1.00
loop_
_geom_bond_atom_site_label_1
_geom_bond_atom_site_label_2
_geom_bond_distance
_geom_bond_site_symmetry_2
_ccdc_geom_bond_type
C001   C002    1.409   .     D
C001   C003    1.409   .     S
C001   C019    1.449   1_545 S
C002   C008    1.436   .     S
C002   N002    1.393   .     S
C003   C005    1.436   .     D
C003   N001    1.392   .     S
C004   C005    1.408   1_565 S
C004   C016    1.434   .     D
C004   C018    1.436   .     S
C005   C004    1.408   1_545 S
C005   C006    1.432   .     S
C006   C007    1.437   .     S
C006   C009    1.408   1_655 D
C007   C020    1.409   .     S
C007   N001    1.393   .     D
C008   C009    1.435   .     S
C008   C014    1.409   1_545 D
C009   C006    1.408   1_455 D
C009   C010    1.435   .     S
C010   C011    1.409   .     S
C010   N002    1.393   .     D
C011   C012    1.409   .     S
C011   C020    1.450   1_455 D
C012   C015    1.434   .     S
C012   N003    1.397   .     D
C013   C014    1.432   .     S
C013   C019    1.410   .     D
C013   N003    1.401   .     S
C014   C008    1.409   1_565 D
C014   C015    1.437   .     S
C015   C018    1.407   1_455 D
C016   C019    1.410   .     S
C016   N004    1.395   .     S
C017   C018    1.438   .     S
C017   C020    1.409   .     S
C017   N004    1.392   .     D
C018   C015    1.407   1_655 D
C019   C001    1.449   1_565 S
C020   C011    1.450   1_655 D
N001   Fe001   2.030   .     S
N002   Fe001   1.990   .     S
N003   Fe001   1.975   .     S
N004   Fe001   2.021   .     S
N005   Fe001   1.756   .     S
N005   O001    1.362   .     S
N005   H001    1.030   .     S
O001   H002    0.985   .     S
