data_e-0.6-opt
_audit_creation_date              2024-12-22
_audit_creation_method            'Materials Studio'
_symmetry_space_group_name_H-M    'P1'
_symmetry_Int_Tables_number       1
_symmetry_cell_setting            triclinic
loop_
_symmetry_equiv_pos_as_xyz
  x,y,z
_cell_length_a                    8.3991
_cell_length_b                    8.3991
_cell_length_c                    20.0482
_cell_angle_alpha                 90.0000
_cell_angle_beta                  90.0000
_cell_angle_gamma                 90.0000
loop_
_atom_site_label
_atom_site_type_symbol
_atom_site_fract_x
_atom_site_fract_y
_atom_site_fract_z
_atom_site_U_iso_or_equiv
_atom_site_adp_type
_atom_site_occupancy
C001   C     0.50048   0.06697   0.13876   1.00000  Uiso   1.00
C002   C     0.35373   0.14835   0.13902   1.00000  Uiso   1.00
C003   C     0.64704   0.14877   0.13806   1.00000  Uiso   1.00
C004   C     0.79661   0.89710   0.13820   1.00000  Uiso   1.00
C005   C     0.79596   0.06469   0.13752   1.00000  Uiso   1.00
C006   C     0.91637   0.18524   0.13784   1.00000  Uiso   1.00
C007   C     0.83188   0.33402   0.13890   1.00000  Uiso   1.00
C008   C     0.20501   0.06394   0.13786   1.00000  Uiso   1.00
C009   C     0.08399   0.18457   0.13828   1.00000  Uiso   1.00
C010   C     0.16788   0.33328   0.13960   1.00000  Uiso   1.00
C011   C     0.08648   0.48010   0.13952   1.00000  Uiso   1.00
C012   C     0.16848   0.62652   0.13780   1.00000  Uiso   1.00
C013   C     0.35437   0.81248   0.13720   1.00000  Uiso   1.00
C014   C     0.20585   0.89618   0.13695   1.00000  Uiso   1.00
C015   C     0.08477   0.77524   0.13730   1.00000  Uiso   1.00
C016   C     0.64787   0.81334   0.13963   1.00000  Uiso   1.00
C017   C     0.83251   0.62725   0.14049   1.00000  Uiso   1.00
C018   C     0.91719   0.77597   0.13840   1.00000  Uiso   1.00
C019   C     0.50082   0.89444   0.13870   1.00000  Uiso   1.00
C020   C     0.91384   0.48047   0.14012   1.00000  Uiso   1.00
N001   N     0.66751   0.31301   0.13826   1.00000  Uiso   1.00
N002   N     0.33251   0.31289   0.14006   1.00000  Uiso   1.00
N003   N     0.33359   0.64696   0.13656   1.00000  Uiso   1.00
N004   N     0.66814   0.64860   0.14186   1.00000  Uiso   1.00
N005   N     0.48050   0.48356   0.23875   1.00000  Uiso   1.00
Fe001  Fe    0.49647   0.48164   0.15013   1.00000  Uiso   1.00
O001   O     0.49103   0.62000   0.27692   1.00000  Uiso   1.00
H001   H     0.39724   0.41472   0.26302   1.00000  Uiso   1.00
H002   H     0.57510   0.68328   0.25538   1.00000  Uiso   1.00
loop_
_geom_bond_atom_site_label_1
_geom_bond_atom_site_label_2
_geom_bond_distance
_geom_bond_site_symmetry_2
_ccdc_geom_bond_type
C001   C002    1.409   .     D
C001   C003    1.410   .     S
C001   C019    1.449   1_545 S
C002   C008    1.436   .     S
C002   N002    1.394   .     S
C003   C005    1.436   .     D
C003   N001    1.390   .     S
C004   C005    1.408   1_565 S
C004   C016    1.434   .     D
C004   C018    1.436   .     S
C005   C004    1.408   1_545 S
C005   C006    1.431   .     S
C006   C007    1.437   .     S
C006   C009    1.408   1_655 D
C007   C020    1.410   .     S
C007   N001    1.392   .     D
C008   C009    1.435   .     S
C008   C014    1.409   1_545 D
C009   C006    1.408   1_455 D
C009   C010    1.434   .     S
C010   C011    1.410   .     S
C010   N002    1.393   .     D
C011   C012    1.410   .     S
C011   C020    1.450   1_455 D
C012   C015    1.433   .     S
C012   N003    1.398   .     D
C013   C014    1.432   .     S
C013   C019    1.410   .     D
C013   N003    1.401   .     S
C014   C008    1.409   1_565 D
C014   C015    1.437   .     S
C015   C018    1.408   1_455 D
C016   C019    1.411   .     S
C016   N004    1.395   .     S
C017   C018    1.438   .     S
C017   C020    1.409   .     S
C017   N004    1.392   .     D
C018   C015    1.408   1_655 D
C019   C001    1.449   1_565 S
C020   C011    1.450   1_655 D
N001   Fe001   2.031   .     S
N002   Fe001   1.987   .     S
N003   Fe001   1.968   .     S
N004   Fe001   2.018   .     S
N005   Fe001   1.782   .     S
N005   O001    1.381   .     S
N005   H001    1.030   .     S
O001   H002    0.984   .     S
