data_e+0.2-opt
_audit_creation_date              2024-12-22
_audit_creation_method            'Materials Studio'
_symmetry_space_group_name_H-M    'P1'
_symmetry_Int_Tables_number       1
_symmetry_cell_setting            triclinic
loop_
_symmetry_equiv_pos_as_xyz
  x,y,z
_cell_length_a                    8.3991
_cell_length_b                    8.3991
_cell_length_c                    20.0482
_cell_angle_alpha                 90.0000
_cell_angle_beta                  90.0000
_cell_angle_gamma                 90.0000
loop_
_atom_site_label
_atom_site_type_symbol
_atom_site_fract_x
_atom_site_fract_y
_atom_site_fract_z
_atom_site_U_iso_or_equiv
_atom_site_adp_type
_atom_site_occupancy
C001   C     0.50129   0.06646   0.13915   1.00000  Uiso   1.00
C002   C     0.35463   0.14797   0.13936   1.00000  Uiso   1.00
C003   C     0.64791   0.14817   0.13841   1.00000  Uiso   1.00
C004   C     0.79715   0.89658   0.13875   1.00000  Uiso   1.00
C005   C     0.79682   0.06377   0.13818   1.00000  Uiso   1.00
C006   C     0.91749   0.18442   0.13832   1.00000  Uiso   1.00
C007   C     0.83266   0.33328   0.13888   1.00000  Uiso   1.00
C008   C     0.20597   0.06332   0.13857   1.00000  Uiso   1.00
C009   C     0.08466   0.18403   0.13872   1.00000  Uiso   1.00
C010   C     0.16868   0.33285   0.13959   1.00000  Uiso   1.00
C011   C     0.08713   0.47961   0.13955   1.00000  Uiso   1.00
C012   C     0.16915   0.62595   0.13824   1.00000  Uiso   1.00
C013   C     0.35503   0.81203   0.13792   1.00000  Uiso   1.00
C014   C     0.20662   0.89592   0.13783   1.00000  Uiso   1.00
C015   C     0.08514   0.77471   0.13800   1.00000  Uiso   1.00
C016   C     0.64843   0.81278   0.13987   1.00000  Uiso   1.00
C017   C     0.83306   0.62644   0.14044   1.00000  Uiso   1.00
C018   C     0.91800   0.77522   0.13885   1.00000  Uiso   1.00
C019   C     0.50146   0.89397   0.13917   1.00000  Uiso   1.00
C020   C     0.91450   0.47980   0.13999   1.00000  Uiso   1.00
N001   N     0.66862   0.31217   0.13839   1.00000  Uiso   1.00
N002   N     0.33313   0.31255   0.14008   1.00000  Uiso   1.00
N003   N     0.33410   0.64659   0.13738   1.00000  Uiso   1.00
N004   N     0.66875   0.64801   0.14190   1.00000  Uiso   1.00
N005   N     0.48221   0.48043   0.23921   1.00000  Uiso   1.00
Fe001  Fe    0.49712   0.48196   0.14858   1.00000  Uiso   1.00
O001   O     0.48517   0.62646   0.27478   1.00000  Uiso   1.00
H001   H     0.38081   0.42696   0.25743   1.00000  Uiso   1.00
H002   H     0.57753   0.68116   0.25559   1.00000  Uiso   1.00
loop_
_geom_bond_atom_site_label_1
_geom_bond_atom_site_label_2
_geom_bond_distance
_geom_bond_site_symmetry_2
_ccdc_geom_bond_type
C001   C002    1.409   .     D
C001   C003    1.410   .     S
C001   C019    1.449   1_545 S
C002   C008    1.437   .     S
C002   N002    1.394   .     S
C003   C005    1.438   .     D
C003   N001    1.388   .     S
C004   C005    1.404   1_565 S
C004   C016    1.434   .     D
C004   C018    1.439   .     S
C005   C004    1.404   1_545 S
C005   C006    1.433   .     S
C006   C007    1.439   .     S
C006   C009    1.404   1_655 D
C007   C020    1.410   .     S
C007   N001    1.389   .     D
C008   C009    1.437   .     S
C008   C014    1.406   1_545 D
C009   C006    1.404   1_455 D
C009   C010    1.436   .     S
C010   C011    1.410   .     S
C010   N002    1.392   .     D
C011   C012    1.409   .     S
C011   C020    1.450   1_455 D
C012   C015    1.435   .     S
C012   N003    1.396   .     D
C013   C014    1.432   .     S
C013   C019    1.410   .     D
C013   N003    1.401   .     S
C014   C008    1.406   1_565 D
C014   C015    1.441   .     S
C015   C018    1.404   1_455 D
C016   C019    1.410   .     S
C016   N004    1.395   .     S
C017   C018    1.439   .     S
C017   C020    1.409   .     S
C017   N004    1.392   .     D
C018   C015    1.404   1_655 D
C019   C001    1.449   1_565 S
C020   C011    1.450   1_655 D
N001   Fe001   2.037   .     S
N002   Fe001   1.988   .     S
N003   Fe001   1.959   .     S
N004   Fe001   2.010   .     S
N005   Fe001   1.821   .     S
N005   O001    1.419   .     S
N005   H001    1.030   .     S
O001   H002    0.980   .     S
