data_e+0.4-opt
_audit_creation_date              2024-12-22
_audit_creation_method            'Materials Studio'
_symmetry_space_group_name_H-M    'P1'
_symmetry_Int_Tables_number       1
_symmetry_cell_setting            triclinic
loop_
_symmetry_equiv_pos_as_xyz
  x,y,z
_cell_length_a                    8.3991
_cell_length_b                    8.3991
_cell_length_c                    20.0482
_cell_angle_alpha                 90.0000
_cell_angle_beta                  90.0000
_cell_angle_gamma                 90.0000
loop_
_atom_site_label
_atom_site_type_symbol
_atom_site_fract_x
_atom_site_fract_y
_atom_site_fract_z
_atom_site_U_iso_or_equiv
_atom_site_adp_type
_atom_site_occupancy
C001   C     0.50128   0.06647   0.13916   1.00000  Uiso   1.00
C002   C     0.35460   0.14800   0.13934   1.00000  Uiso   1.00
C003   C     0.64787   0.14821   0.13843   1.00000  Uiso   1.00
C004   C     0.79709   0.89664   0.13873   1.00000  Uiso   1.00
C005   C     0.79680   0.06374   0.13819   1.00000  Uiso   1.00
C006   C     0.91751   0.18441   0.13833   1.00000  Uiso   1.00
C007   C     0.83260   0.33333   0.13892   1.00000  Uiso   1.00
C008   C     0.20595   0.06331   0.13853   1.00000  Uiso   1.00
C009   C     0.08458   0.18404   0.13871   1.00000  Uiso   1.00
C010   C     0.16867   0.33288   0.13960   1.00000  Uiso   1.00
C011   C     0.08708   0.47964   0.13960   1.00000  Uiso   1.00
C012   C     0.16916   0.62595   0.13833   1.00000  Uiso   1.00
C013   C     0.35501   0.81202   0.13798   1.00000  Uiso   1.00
C014   C     0.20659   0.89598   0.13779   1.00000  Uiso   1.00
C015   C     0.08503   0.77474   0.13799   1.00000  Uiso   1.00
C016   C     0.64839   0.81281   0.13988   1.00000  Uiso   1.00
C017   C     0.83302   0.62644   0.14045   1.00000  Uiso   1.00
C018   C     0.91804   0.77523   0.13883   1.00000  Uiso   1.00
C019   C     0.50141   0.89401   0.13920   1.00000  Uiso   1.00
C020   C     0.91447   0.47980   0.14004   1.00000  Uiso   1.00
N001   N     0.66865   0.31217   0.13849   1.00000  Uiso   1.00
N002   N     0.33307   0.31258   0.14012   1.00000  Uiso   1.00
N003   N     0.33406   0.64660   0.13767   1.00000  Uiso   1.00
N004   N     0.66870   0.64803   0.14197   1.00000  Uiso   1.00
N005   N     0.48389   0.47880   0.23960   1.00000  Uiso   1.00
Fe001  Fe    0.49720   0.48205   0.14843   1.00000  Uiso   1.00
O001   O     0.48534   0.62671   0.27487   1.00000  Uiso   1.00
H001   H     0.38020   0.42760   0.25678   1.00000  Uiso   1.00
H002   H     0.57698   0.68138   0.25510   1.00000  Uiso   1.00
loop_
_geom_bond_atom_site_label_1
_geom_bond_atom_site_label_2
_geom_bond_distance
_geom_bond_site_symmetry_2
_ccdc_geom_bond_type
C001   C002    1.410   .     D
C001   C003    1.410   .     S
C001   C019    1.448   1_545 S
C002   C008    1.437   .     S
C002   N002    1.394   .     S
C003   C005    1.438   .     D
C003   N001    1.388   .     S
C004   C005    1.404   1_565 S
C004   C016    1.434   .     D
C004   C018    1.439   .     S
C005   C004    1.404   1_545 S
C005   C006    1.434   .     S
C006   C007    1.440   .     S
C006   C009    1.403   1_655 D
C007   C020    1.410   .     S
C007   N001    1.388   .     D
C008   C009    1.438   .     S
C008   C014    1.406   1_545 D
C009   C006    1.403   1_455 D
C009   C010    1.436   .     S
C010   C011    1.410   .     S
C010   N002    1.391   .     D
C011   C012    1.409   .     S
C011   C020    1.450   1_455 D
C012   C015    1.436   .     S
C012   N003    1.396   .     D
C013   C014    1.432   .     S
C013   C019    1.410   .     D
C013   N003    1.400   .     S
C014   C008    1.406   1_565 D
C014   C015    1.442   .     S
C015   C018    1.403   1_455 D
C016   C019    1.410   .     S
C016   N004    1.395   .     S
C017   C018    1.440   .     S
C017   C020    1.409   .     S
C017   N004    1.392   .     D
C018   C015    1.403   1_655 D
C019   C001    1.448   1_565 S
C020   C011    1.450   1_655 D
N001   Fe001   2.037   .     S
N002   Fe001   1.988   .     S
N003   Fe001   1.958   .     S
N004   Fe001   2.009   .     S
N005   Fe001   1.831   .     S
N005   O001    1.430   .     S
N005   H001    1.031   .     S
O001   H002    0.980   .     S
