data_e+0.0-opt
_audit_creation_date              2024-12-22
_audit_creation_method            'Materials Studio'
_symmetry_space_group_name_H-M    'P1'
_symmetry_Int_Tables_number       1
_symmetry_cell_setting            triclinic
loop_
_symmetry_equiv_pos_as_xyz
  x,y,z
_cell_length_a                    8.3991
_cell_length_b                    8.3991
_cell_length_c                    20.0482
_cell_angle_alpha                 90.0000
_cell_angle_beta                  90.0000
_cell_angle_gamma                 90.0000
loop_
_atom_site_label
_atom_site_type_symbol
_atom_site_fract_x
_atom_site_fract_y
_atom_site_fract_z
_atom_site_U_iso_or_equiv
_atom_site_adp_type
_atom_site_occupancy
C001   C     0.50127   0.06649   0.13913   1.00000  Uiso   1.00
C002   C     0.35458   0.14796   0.13934   1.00000  Uiso   1.00
C003   C     0.64786   0.14820   0.13838   1.00000  Uiso   1.00
C004   C     0.79716   0.89661   0.13873   1.00000  Uiso   1.00
C005   C     0.79677   0.06387   0.13814   1.00000  Uiso   1.00
C006   C     0.91737   0.18452   0.13831   1.00000  Uiso   1.00
C007   C     0.83265   0.33338   0.13890   1.00000  Uiso   1.00
C008   C     0.20592   0.06337   0.13854   1.00000  Uiso   1.00
C009   C     0.08466   0.18408   0.13873   1.00000  Uiso   1.00
C010   C     0.16861   0.33286   0.13961   1.00000  Uiso   1.00
C011   C     0.08712   0.47965   0.13955   1.00000  Uiso   1.00
C012   C     0.16914   0.62600   0.13816   1.00000  Uiso   1.00
C013   C     0.35502   0.81206   0.13782   1.00000  Uiso   1.00
C014   C     0.20661   0.89591   0.13778   1.00000  Uiso   1.00
C015   C     0.08518   0.77474   0.13797   1.00000  Uiso   1.00
C016   C     0.64845   0.81283   0.13986   1.00000  Uiso   1.00
C017   C     0.83307   0.62656   0.14047   1.00000  Uiso   1.00
C018   C     0.91797   0.77528   0.13884   1.00000  Uiso   1.00
C019   C     0.50146   0.89400   0.13913   1.00000  Uiso   1.00
C020   C     0.91448   0.47981   0.14003   1.00000  Uiso   1.00
N001   N     0.66857   0.31221   0.13832   1.00000  Uiso   1.00
N002   N     0.33311   0.31254   0.14004   1.00000  Uiso   1.00
N003   N     0.33408   0.64664   0.13712   1.00000  Uiso   1.00
N004   N     0.66876   0.64808   0.14188   1.00000  Uiso   1.00
N005   N     0.48089   0.48170   0.23886   1.00000  Uiso   1.00
Fe001  Fe    0.49702   0.48185   0.14878   1.00000  Uiso   1.00
O001   O     0.48564   0.62565   0.27484   1.00000  Uiso   1.00
H001   H     0.38234   0.42548   0.25829   1.00000  Uiso   1.00
H002   H     0.57746   0.68124   0.25554   1.00000  Uiso   1.00
loop_
_geom_bond_atom_site_label_1
_geom_bond_atom_site_label_2
_geom_bond_distance
_geom_bond_site_symmetry_2
_ccdc_geom_bond_type
C001   C002    1.409   .     D
C001   C003    1.410   .     S
C001   C019    1.449   1_545 S
C002   C008    1.437   .     S
C002   N002    1.394   .     S
C003   C005    1.437   .     D
C003   N001    1.388   .     S
C004   C005    1.405   1_565 S
C004   C016    1.434   .     D
C004   C018    1.438   .     S
C005   C004    1.405   1_545 S
C005   C006    1.433   .     S
C006   C007    1.439   .     S
C006   C009    1.405   1_655 D
C007   C020    1.409   .     S
C007   N001    1.390   .     D
C008   C009    1.437   .     S
C008   C014    1.407   1_545 D
C009   C006    1.405   1_455 D
C009   C010    1.435   .     S
C010   C011    1.410   .     S
C010   N002    1.392   .     D
C011   C012    1.409   .     S
C011   C020    1.450   1_455 D
C012   C015    1.435   .     S
C012   N003    1.396   .     D
C013   C014    1.432   .     S
C013   C019    1.410   .     D
C013   N003    1.401   .     S
C014   C008    1.407   1_565 D
C014   C015    1.441   .     S
C015   C018    1.405   1_455 D
C016   C019    1.410   .     S
C016   N004    1.395   .     S
C017   C018    1.439   .     S
C017   C020    1.410   .     S
C017   N004    1.392   .     D
C018   C015    1.405   1_655 D
C019   C001    1.449   1_565 S
C020   C011    1.450   1_655 D
N001   Fe001   2.037   .     S
N002   Fe001   1.987   .     S
N003   Fe001   1.960   .     S
N004   Fe001   2.012   .     S
N005   Fe001   1.811   .     S
N005   O001    1.409   .     S
N005   H001    1.029   .     S
O001   H002    0.981   .     S
