data_e+1.0-opt
_audit_creation_date              2024-12-22
_audit_creation_method            'Materials Studio'
_symmetry_space_group_name_H-M    'P1'
_symmetry_Int_Tables_number       1
_symmetry_cell_setting            triclinic
loop_
_symmetry_equiv_pos_as_xyz
  x,y,z
_cell_length_a                    8.3991
_cell_length_b                    8.3991
_cell_length_c                    20.0482
_cell_angle_alpha                 90.0000
_cell_angle_beta                  90.0000
_cell_angle_gamma                 90.0000
loop_
_atom_site_label
_atom_site_type_symbol
_atom_site_fract_x
_atom_site_fract_y
_atom_site_fract_z
_atom_site_U_iso_or_equiv
_atom_site_adp_type
_atom_site_occupancy
C001   C     0.50127   0.06647   0.13916   1.00000  Uiso   1.00
C002   C     0.35462   0.14798   0.13933   1.00000  Uiso   1.00
C003   C     0.64789   0.14819   0.13846   1.00000  Uiso   1.00
C004   C     0.79715   0.89676   0.13871   1.00000  Uiso   1.00
C005   C     0.79689   0.06354   0.13821   1.00000  Uiso   1.00
C006   C     0.91774   0.18428   0.13833   1.00000  Uiso   1.00
C007   C     0.83257   0.33337   0.13893   1.00000  Uiso   1.00
C008   C     0.20597   0.06316   0.13850   1.00000  Uiso   1.00
C009   C     0.08443   0.18396   0.13867   1.00000  Uiso   1.00
C010   C     0.16871   0.33296   0.13959   1.00000  Uiso   1.00
C011   C     0.08707   0.47969   0.13960   1.00000  Uiso   1.00
C012   C     0.16916   0.62589   0.13830   1.00000  Uiso   1.00
C013   C     0.35503   0.81205   0.13796   1.00000  Uiso   1.00
C014   C     0.20654   0.89612   0.13776   1.00000  Uiso   1.00
C015   C     0.08489   0.77484   0.13794   1.00000  Uiso   1.00
C016   C     0.64836   0.81283   0.13987   1.00000  Uiso   1.00
C017   C     0.83299   0.62640   0.14044   1.00000  Uiso   1.00
C018   C     0.91817   0.77528   0.13879   1.00000  Uiso   1.00
C019   C     0.50140   0.89404   0.13919   1.00000  Uiso   1.00
C020   C     0.91446   0.47983   0.14004   1.00000  Uiso   1.00
N001   N     0.66888   0.31201   0.13860   1.00000  Uiso   1.00
N002   N     0.33285   0.31257   0.14025   1.00000  Uiso   1.00
N003   N     0.33392   0.64672   0.13773   1.00000  Uiso   1.00
N004   N     0.66880   0.64822   0.14209   1.00000  Uiso   1.00
N005   N     0.48354   0.47901   0.23936   1.00000  Uiso   1.00
Fe001  Fe    0.49699   0.48224   0.14832   1.00000  Uiso   1.00
O001   O     0.48558   0.62641   0.27499   1.00000  Uiso   1.00
H001   H     0.38039   0.42735   0.25683   1.00000  Uiso   1.00
H002   H     0.57695   0.68141   0.25516   1.00000  Uiso   1.00
loop_
_geom_bond_atom_site_label_1
_geom_bond_atom_site_label_2
_geom_bond_distance
_geom_bond_site_symmetry_2
_ccdc_geom_bond_type
C001   C002    1.409   .     D
C001   C003    1.410   .     S
C001   C019    1.448   1_545 S
C002   C008    1.438   .     S
C002   N002    1.395   .     S
C003   C005    1.439   .     D
C003   N001    1.387   .     S
C004   C005    1.401   1_565 S
C004   C016    1.435   .     D
C004   C018    1.440   .     S
C005   C004    1.401   1_545 S
C005   C006    1.435   .     S
C006   C007    1.442   .     S
C006   C009    1.400   1_655 D
C007   C020    1.409   .     S
C007   N001    1.387   .     D
C008   C009    1.439   .     S
C008   C014    1.403   1_545 D
C009   C006    1.400   1_455 D
C009   C010    1.438   .     S
C010   C011    1.410   .     S
C010   N002    1.389   .     D
C011   C012    1.409   .     S
C011   C020    1.450   1_455 D
C012   C015    1.437   .     S
C012   N003    1.395   .     D
C013   C014    1.433   .     S
C013   C019    1.409   .     D
C013   N003    1.400   .     S
C014   C008    1.403   1_565 D
C014   C015    1.443   .     S
C015   C018    1.400   1_455 D
C016   C019    1.410   .     S
C016   N004    1.394   .     S
C017   C018    1.441   .     S
C017   C020    1.408   .     S
C017   N004    1.392   .     D
C018   C015    1.400   1_655 D
C019   C001    1.448   1_565 S
C020   C011    1.450   1_655 D
N001   Fe001   2.041   .     S
N002   Fe001   1.989   .     S
N003   Fe001   1.957   .     S
N004   Fe001   2.010   .     S
N005   Fe001   1.829   .     S
N005   O001    1.429   .     S
N005   H001    1.030   .     S
O001   H002    0.980   .     S
