data_e-0.2-opt
_audit_creation_date              2024-12-22
_audit_creation_method            'Materials Studio'
_symmetry_space_group_name_H-M    'P1'
_symmetry_Int_Tables_number       1
_symmetry_cell_setting            triclinic
loop_
_symmetry_equiv_pos_as_xyz
  x,y,z
_cell_length_a                    8.3991
_cell_length_b                    8.3991
_cell_length_c                    20.0482
_cell_angle_alpha                 90.0000
_cell_angle_beta                  90.0000
_cell_angle_gamma                 90.0000
loop_
_atom_site_label
_atom_site_type_symbol
_atom_site_fract_x
_atom_site_fract_y
_atom_site_fract_z
_atom_site_U_iso_or_equiv
_atom_site_adp_type
_atom_site_occupancy
C001   C     0.50114   0.06658   0.13904   1.00000  Uiso   1.00
C002   C     0.35442   0.14799   0.13926   1.00000  Uiso   1.00
C003   C     0.64773   0.14829   0.13833   1.00000  Uiso   1.00
C004   C     0.79711   0.89672   0.13866   1.00000  Uiso   1.00
C005   C     0.79662   0.06405   0.13805   1.00000  Uiso   1.00
C006   C     0.91719   0.18469   0.13827   1.00000  Uiso   1.00
C007   C     0.83256   0.33349   0.13895   1.00000  Uiso   1.00
C008   C     0.20575   0.06348   0.13841   1.00000  Uiso   1.00
C009   C     0.08456   0.18417   0.13868   1.00000  Uiso   1.00
C010   C     0.16847   0.33293   0.13963   1.00000  Uiso   1.00
C011   C     0.08703   0.47973   0.13955   1.00000  Uiso   1.00
C012   C     0.16899   0.62611   0.13803   1.00000  Uiso   1.00
C013   C     0.35493   0.81217   0.13763   1.00000  Uiso   1.00
C014   C     0.20648   0.89594   0.13761   1.00000  Uiso   1.00
C015   C     0.08516   0.77483   0.13783   1.00000  Uiso   1.00
C016   C     0.64837   0.81295   0.13984   1.00000  Uiso   1.00
C017   C     0.83304   0.62672   0.14052   1.00000  Uiso   1.00
C018   C     0.91784   0.77542   0.13879   1.00000  Uiso   1.00
C019   C     0.50137   0.89407   0.13902   1.00000  Uiso   1.00
C020   C     0.91439   0.47997   0.14009   1.00000  Uiso   1.00
N001   N     0.66838   0.31236   0.13830   1.00000  Uiso   1.00
N002   N     0.33301   0.31257   0.14000   1.00000  Uiso   1.00
N003   N     0.33400   0.64671   0.13683   1.00000  Uiso   1.00
N004   N     0.66869   0.64821   0.14189   1.00000  Uiso   1.00
N005   N     0.48001   0.48273   0.23867   1.00000  Uiso   1.00
Fe001  Fe    0.49686   0.48171   0.14913   1.00000  Uiso   1.00
O001   O     0.48673   0.62442   0.27520   1.00000  Uiso   1.00
H001   H     0.38552   0.42286   0.25963   1.00000  Uiso   1.00
H002   H     0.57686   0.68169   0.25527   1.00000  Uiso   1.00
loop_
_geom_bond_atom_site_label_1
_geom_bond_atom_site_label_2
_geom_bond_distance
_geom_bond_site_symmetry_2
_ccdc_geom_bond_type
C001   C002    1.409   .     D
C001   C003    1.410   .     S
C001   C019    1.449   1_545 S
C002   C008    1.436   .     S
C002   N002    1.394   .     S
C003   C005    1.437   .     D
C003   N001    1.389   .     S
C004   C005    1.405   1_565 S
C004   C016    1.434   .     D
C004   C018    1.437   .     S
C005   C004    1.405   1_545 S
C005   C006    1.433   .     S
C006   C007    1.438   .     S
C006   C009    1.406   1_655 D
C007   C020    1.409   .     S
C007   N001    1.390   .     D
C008   C009    1.437   .     S
C008   C014    1.407   1_545 D
C009   C006    1.406   1_455 D
C009   C010    1.435   .     S
C010   C011    1.410   .     S
C010   N002    1.393   .     D
C011   C012    1.409   .     S
C011   C020    1.450   1_455 D
C012   C015    1.434   .     S
C012   N003    1.397   .     D
C013   C014    1.432   .     S
C013   C019    1.410   .     D
C013   N003    1.401   .     S
C014   C008    1.407   1_565 D
C014   C015    1.440   .     S
C015   C018    1.405   1_455 D
C016   C019    1.410   .     S
C016   N004    1.395   .     S
C017   C018    1.438   .     S
C017   C020    1.409   .     S
C017   N004    1.392   .     D
C018   C015    1.405   1_655 D
C019   C001    1.449   1_565 S
C020   C011    1.450   1_655 D
N001   Fe001   2.036   .     S
N002   Fe001   1.986   .     S
N003   Fe001   1.963   .     S
N004   Fe001   2.015   .     S
N005   Fe001   1.801   .     S
N005   O001    1.399   .     S
N005   H001    1.029   .     S
O001   H002    0.982   .     S
