data_e+0.8-opt
_audit_creation_date              2024-12-22
_audit_creation_method            'Materials Studio'
_symmetry_space_group_name_H-M    'P1'
_symmetry_Int_Tables_number       1
_symmetry_cell_setting            triclinic
loop_
_symmetry_equiv_pos_as_xyz
  x,y,z
_cell_length_a                    8.3991
_cell_length_b                    8.3991
_cell_length_c                    20.0482
_cell_angle_alpha                 90.0000
_cell_angle_beta                  90.0000
_cell_angle_gamma                 90.0000
loop_
_atom_site_label
_atom_site_type_symbol
_atom_site_fract_x
_atom_site_fract_y
_atom_site_fract_z
_atom_site_U_iso_or_equiv
_atom_site_adp_type
_atom_site_occupancy
C001   C     0.50127   0.06648   0.13916   1.00000  Uiso   1.00
C002   C     0.35461   0.14799   0.13934   1.00000  Uiso   1.00
C003   C     0.64789   0.14820   0.13845   1.00000  Uiso   1.00
C004   C     0.79712   0.89671   0.13872   1.00000  Uiso   1.00
C005   C     0.79686   0.06361   0.13821   1.00000  Uiso   1.00
C006   C     0.91765   0.18432   0.13833   1.00000  Uiso   1.00
C007   C     0.83258   0.33334   0.13892   1.00000  Uiso   1.00
C008   C     0.20595   0.06322   0.13851   1.00000  Uiso   1.00
C009   C     0.08449   0.18399   0.13869   1.00000  Uiso   1.00
C010   C     0.16869   0.33293   0.13959   1.00000  Uiso   1.00
C011   C     0.08707   0.47968   0.13960   1.00000  Uiso   1.00
C012   C     0.16915   0.62591   0.13833   1.00000  Uiso   1.00
C013   C     0.35502   0.81204   0.13799   1.00000  Uiso   1.00
C014   C     0.20655   0.89608   0.13778   1.00000  Uiso   1.00
C015   C     0.08493   0.77481   0.13796   1.00000  Uiso   1.00
C016   C     0.64837   0.81283   0.13988   1.00000  Uiso   1.00
C017   C     0.83299   0.62641   0.14044   1.00000  Uiso   1.00
C018   C     0.91811   0.77526   0.13881   1.00000  Uiso   1.00
C019   C     0.50139   0.89404   0.13921   1.00000  Uiso   1.00
C020   C     0.91445   0.47982   0.14003   1.00000  Uiso   1.00
N001   N     0.66879   0.31207   0.13857   1.00000  Uiso   1.00
N002   N     0.33293   0.31258   0.14020   1.00000  Uiso   1.00
N003   N     0.33397   0.64668   0.13777   1.00000  Uiso   1.00
N004   N     0.66875   0.64813   0.14205   1.00000  Uiso   1.00
N005   N     0.48401   0.47857   0.23953   1.00000  Uiso   1.00
Fe001  Fe    0.49707   0.48221   0.14833   1.00000  Uiso   1.00
O001   O     0.48553   0.62658   0.27497   1.00000  Uiso   1.00
H001   H     0.38010   0.42767   0.25664   1.00000  Uiso   1.00
H002   H     0.57690   0.68141   0.25507   1.00000  Uiso   1.00
loop_
_geom_bond_atom_site_label_1
_geom_bond_atom_site_label_2
_geom_bond_distance
_geom_bond_site_symmetry_2
_ccdc_geom_bond_type
C001   C002    1.409   .     D
C001   C003    1.410   .     S
C001   C019    1.448   1_545 S
C002   C008    1.437   .     S
C002   N002    1.394   .     S
C003   C005    1.439   .     D
C003   N001    1.388   .     S
C004   C005    1.402   1_565 S
C004   C016    1.435   .     D
C004   C018    1.440   .     S
C005   C004    1.402   1_545 S
C005   C006    1.434   .     S
C006   C007    1.441   .     S
C006   C009    1.401   1_655 D
C007   C020    1.410   .     S
C007   N001    1.387   .     D
C008   C009    1.439   .     S
C008   C014    1.404   1_545 D
C009   C006    1.401   1_455 D
C009   C010    1.437   .     S
C010   C011    1.410   .     S
C010   N002    1.390   .     D
C011   C012    1.409   .     S
C011   C020    1.450   1_455 D
C012   C015    1.437   .     S
C012   N003    1.395   .     D
C013   C014    1.433   .     S
C013   C019    1.409   .     D
C013   N003    1.400   .     S
C014   C008    1.404   1_565 D
C014   C015    1.443   .     S
C015   C018    1.401   1_455 D
C016   C019    1.410   .     S
C016   N004    1.395   .     S
C017   C018    1.441   .     S
C017   C020    1.409   .     S
C017   N004    1.392   .     D
C018   C015    1.401   1_655 D
C019   C001    1.448   1_565 S
C020   C011    1.450   1_655 D
N001   Fe001   2.040   .     S
N002   Fe001   1.989   .     S
N003   Fe001   1.957   .     S
N004   Fe001   2.009   .     S
N005   Fe001   1.832   .     S
N005   O001    1.432   .     S
N005   H001    1.031   .     S
O001   H002    0.980   .     S
