data_e+0.6-opt
_audit_creation_date              2024-12-22
_audit_creation_method            'Materials Studio'
_symmetry_space_group_name_H-M    'P1'
_symmetry_Int_Tables_number       1
_symmetry_cell_setting            triclinic
loop_
_symmetry_equiv_pos_as_xyz
  x,y,z
_cell_length_a                    12.4713
_cell_length_b                    12.7343
_cell_length_c                    19.9844
_cell_angle_alpha                 90.0000
_cell_angle_beta                  90.0000
_cell_angle_gamma                 90.0000
loop_
_atom_site_label
_atom_site_type_symbol
_atom_site_fract_x
_atom_site_fract_y
_atom_site_fract_z
_atom_site_U_iso_or_equiv
_atom_site_adp_type
_atom_site_occupancy
C001   C     0.05142   0.04525   0.15514   1.00000  Uiso   1.00
C002   C     0.15190   0.10003   0.15455   1.00000  Uiso   1.00
C003   C     0.15129   0.21142   0.15299   1.00000  Uiso   1.00
C004   C     0.05136   0.26651   0.15210   1.00000  Uiso   1.00
C005   C     0.25273   0.04564   0.15551   1.00000  Uiso   1.00
C006   C     0.35283   0.10181   0.15608   1.00000  Uiso   1.00
C007   C     0.35179   0.21450   0.15520   1.00000  Uiso   1.00
C008   C     0.25052   0.26712   0.15296   1.00000  Uiso   1.00
C009   C     0.45291   0.04647   0.15774   1.00000  Uiso   1.00
C010   C     0.55141   0.10533   0.15869   1.00000  Uiso   1.00
C011   C     0.55132   0.22012   0.15948   1.00000  Uiso   1.00
C012   C     0.44968   0.27508   0.15803   1.00000  Uiso   1.00
C013   C     0.64991   0.04654   0.15833   1.00000  Uiso   1.00
C014   C     0.74991   0.10202   0.15702   1.00000  Uiso   1.00
C015   C     0.75075   0.21485   0.15630   1.00000  Uiso   1.00
C016   C     0.65269   0.27536   0.15857   1.00000  Uiso   1.00
C017   C     0.85006   0.04575   0.15638   1.00000  Uiso   1.00
C018   C     0.95091   0.10005   0.15507   1.00000  Uiso   1.00
C019   C     0.95145   0.21148   0.15362   1.00000  Uiso   1.00
C020   C     0.85222   0.26725   0.15419   1.00000  Uiso   1.00
C021   C     0.05141   0.37800   0.15068   1.00000  Uiso   1.00
C022   C     0.14985   0.43399   0.15011   1.00000  Uiso   1.00
C023   C     0.14994   0.54518   0.15050   1.00000  Uiso   1.00
C024   C     0.05156   0.60125   0.15152   1.00000  Uiso   1.00
C025   C     0.24877   0.37845   0.15143   1.00000  Uiso   1.00
C026   C     0.34667   0.43353   0.15398   1.00000  Uiso   1.00
C027   C     0.34681   0.54543   0.15364   1.00000  Uiso   1.00
C028   C     0.24895   0.60065   0.15179   1.00000  Uiso   1.00
C029   C     0.75630   0.43386   0.15607   1.00000  Uiso   1.00
C030   C     0.75645   0.54563   0.15702   1.00000  Uiso   1.00
C031   C     0.85411   0.37852   0.15339   1.00000  Uiso   1.00
C032   C     0.95303   0.43403   0.15153   1.00000  Uiso   1.00
C033   C     0.95313   0.54529   0.15200   1.00000  Uiso   1.00
C034   C     0.85433   0.60087   0.15447   1.00000  Uiso   1.00
C035   C     0.05153   0.71270   0.15338   1.00000  Uiso   1.00
C036   C     0.15149   0.76776   0.15394   1.00000  Uiso   1.00
C037   C     0.05149   0.93399   0.15557   1.00000  Uiso   1.00
C038   C     0.25071   0.71201   0.15348   1.00000  Uiso   1.00
C039   C     0.35202   0.76460   0.15547   1.00000  Uiso   1.00
C040   C     0.35293   0.87733   0.15642   1.00000  Uiso   1.00
C041   C     0.25279   0.93352   0.15578   1.00000  Uiso   1.00
C042   C     0.45002   0.70403   0.15771   1.00000  Uiso   1.00
C043   C     0.55144   0.75911   0.16003   1.00000  Uiso   1.00
C044   C     0.55146   0.87390   0.15909   1.00000  Uiso   1.00
C045   C     0.45296   0.93274   0.15788   1.00000  Uiso   1.00
C046   C     0.65303   0.70400   0.16010   1.00000  Uiso   1.00
C047   C     0.75101   0.76453   0.15773   1.00000  Uiso   1.00
C048   C     0.75001   0.87732   0.15780   1.00000  Uiso   1.00
C049   C     0.64996   0.93273   0.15866   1.00000  Uiso   1.00
C050   C     0.85245   0.71207   0.15582   1.00000  Uiso   1.00
C051   C     0.95167   0.76781   0.15511   1.00000  Uiso   1.00
C052   C     0.85013   0.93358   0.15685   1.00000  Uiso   1.00
C053   C     0.15199   0.87915   0.15521   1.00000  Uiso   1.00
C054   C     0.95100   0.87923   0.15599   1.00000  Uiso   1.00
N001   N     0.44427   0.38377   0.15926   1.00000  Uiso   1.00
N002   N     0.44470   0.59512   0.15760   1.00000  Uiso   1.00
N003   N     0.65802   0.38472   0.15923   1.00000  Uiso   1.00
N004   N     0.65839   0.59484   0.16148   1.00000  Uiso   1.00
N005   N     0.55127   0.48962   0.26200   1.00000  Uiso   1.00
H001   H     0.63010   0.49944   0.27964   1.00000  Uiso   1.00
Fe001  Fe    0.55133   0.48955   0.17661   1.00000  Uiso   1.00
loop_
_geom_bond_atom_site_label_1
_geom_bond_atom_site_label_2
_geom_bond_distance
_geom_bond_site_symmetry_2
_ccdc_geom_bond_type
C001   C002    1.434   .     D
C001   C018    1.435   1_455 S
C001   C037    1.417   1_545 S
C002   C003    1.419   .     S
C002   C005    1.436   .     S
C003   C004    1.430   .     D
C003   C008    1.426   .     S
C004   C019    1.430   1_455 S
C004   C021    1.420   .     S
C005   C006    1.439   .     S
C005   C041    1.428   1_545 D
C006   C007    1.435   .     S
C006   C009    1.434   .     D
C007   C008    1.430   .     S
C007   C012    1.445   .     D
C008   C025    1.418   .     D
C009   C010    1.439   .     S
C009   C045    1.448   1_545 S
C010   C011    1.462   .     D
C010   C013    1.439   .     S
C011   C012    1.448   .     S
C011   C016    1.447   .     S
C012   N001    1.386   .     S
C013   C014    1.434   .     D
C013   C049    1.449   1_545 S
C014   C015    1.437   .     S
C014   C017    1.440   .     S
C015   C016    1.446   .     S
C015   C020    1.431   .     D
C016   N003    1.394   .     D
C017   C018    1.436   .     S
C017   C052    1.428   1_545 D
C018   C001    1.435   1_655 S
C018   C019    1.419   .     D
C019   C004    1.430   1_655 S
C019   C020    1.427   .     S
C020   C031    1.417   .     S
C021   C022    1.420   .     D
C021   C032    1.419   1_455 S
C022   C023    1.416   .     S
C022   C025    1.422   .     S
C023   C024    1.420   .     D
C023   C028    1.423   .     S
C024   C033    1.419   1_455 S
C024   C035    1.420   .     S
C025   C026    1.409   .     S
C026   C027    1.425   .     S
C026   N001    1.376   .     D
C027   C028    1.409   .     S
C027   N002    1.377   .     D
C028   C038    1.419   .     D
C029   C030    1.423   .     S
C029   C031    1.410   .     D
C029   N003    1.378   .     S
C030   C034    1.410   .     S
C030   N004    1.377   .     D
C031   C032    1.422   .     S
C032   C021    1.419   1_655 S
C032   C033    1.417   .     D
C033   C024    1.419   1_655 S
C033   C034    1.422   .     S
C034   C050    1.416   .     D
C035   C036    1.430   .     S
C035   C051    1.430   1_455 D
C036   C038    1.427   .     S
C036   C053    1.419   .     D
C037   C001    1.417   1_565 S
C037   C053    1.435   .     S
C037   C054    1.434   1_455 D
C038   C039    1.431   .     S
C039   C040    1.436   .     S
C039   C042    1.446   .     D
C040   C041    1.439   .     S
C040   C045    1.434   .     D
C041   C005    1.428   1_565 D
C041   C053    1.435   .     S
C042   C043    1.447   .     S
C042   N002    1.388   .     S
C043   C044    1.462   .     S
C043   C046    1.448   .     D
C044   C045    1.439   .     S
C044   C049    1.439   .     D
C045   C009    1.448   1_565 S
C046   C047    1.446   .     S
C046   N004    1.392   .     S
C047   C048    1.436   .     D
C047   C050    1.431   .     S
C048   C049    1.434   .     S
C048   C052    1.440   .     S
C049   C013    1.449   1_565 S
C050   C051    1.427   .     S
C051   C035    1.430   1_655 D
C051   C054    1.419   .     S
C052   C017    1.428   1_565 D
C052   C054    1.436   .     S
C054   C037    1.434   1_655 D
N001   Fe001   1.928   .     S
N002   Fe001   1.929   .     S
N003   Fe001   1.917   .     S
N004   Fe001   1.916   .     S
N005   H001    1.052   .     S
N005   Fe001   1.706   .     S
