data_e-0.8-opt
_audit_creation_date              2024-12-22
_audit_creation_method            'Materials Studio'
_symmetry_space_group_name_H-M    'P1'
_symmetry_Int_Tables_number       1
_symmetry_cell_setting            triclinic
loop_
_symmetry_equiv_pos_as_xyz
  x,y,z
_cell_length_a                    12.4713
_cell_length_b                    12.7343
_cell_length_c                    19.9844
_cell_angle_alpha                 90.0000
_cell_angle_beta                  90.0000
_cell_angle_gamma                 90.0000
loop_
_atom_site_label
_atom_site_type_symbol
_atom_site_fract_x
_atom_site_fract_y
_atom_site_fract_z
_atom_site_U_iso_or_equiv
_atom_site_adp_type
_atom_site_occupancy
C001   C     0.05136   0.04524   0.15509   1.00000  Uiso   1.00
C002   C     0.15185   0.10003   0.15454   1.00000  Uiso   1.00
C003   C     0.15123   0.21140   0.15298   1.00000  Uiso   1.00
C004   C     0.05131   0.26650   0.15205   1.00000  Uiso   1.00
C005   C     0.25264   0.04562   0.15552   1.00000  Uiso   1.00
C006   C     0.35275   0.10172   0.15616   1.00000  Uiso   1.00
C007   C     0.35167   0.21435   0.15532   1.00000  Uiso   1.00
C008   C     0.25049   0.26709   0.15306   1.00000  Uiso   1.00
C009   C     0.45286   0.04642   0.15774   1.00000  Uiso   1.00
C010   C     0.55139   0.10530   0.15867   1.00000  Uiso   1.00
C011   C     0.55131   0.22003   0.15929   1.00000  Uiso   1.00
C012   C     0.44962   0.27488   0.15788   1.00000  Uiso   1.00
C013   C     0.64990   0.04653   0.15835   1.00000  Uiso   1.00
C014   C     0.74987   0.10202   0.15705   1.00000  Uiso   1.00
C015   C     0.75072   0.21486   0.15641   1.00000  Uiso   1.00
C016   C     0.65263   0.27531   0.15868   1.00000  Uiso   1.00
C017   C     0.85004   0.04575   0.15634   1.00000  Uiso   1.00
C018   C     0.95087   0.10003   0.15504   1.00000  Uiso   1.00
C019   C     0.95142   0.21147   0.15358   1.00000  Uiso   1.00
C020   C     0.85219   0.26724   0.15422   1.00000  Uiso   1.00
C021   C     0.05138   0.37800   0.15065   1.00000  Uiso   1.00
C022   C     0.14985   0.43399   0.15015   1.00000  Uiso   1.00
C023   C     0.14993   0.54520   0.15051   1.00000  Uiso   1.00
C024   C     0.05152   0.60125   0.15144   1.00000  Uiso   1.00
C025   C     0.24874   0.37847   0.15154   1.00000  Uiso   1.00
C026   C     0.34677   0.43346   0.15386   1.00000  Uiso   1.00
C027   C     0.34691   0.54554   0.15358   1.00000  Uiso   1.00
C028   C     0.24891   0.60065   0.15187   1.00000  Uiso   1.00
C029   C     0.75631   0.43383   0.15626   1.00000  Uiso   1.00
C030   C     0.75643   0.54563   0.15712   1.00000  Uiso   1.00
C031   C     0.85413   0.37848   0.15338   1.00000  Uiso   1.00
C032   C     0.95300   0.43401   0.15141   1.00000  Uiso   1.00
C033   C     0.95308   0.54532   0.15186   1.00000  Uiso   1.00
C034   C     0.85434   0.60090   0.15442   1.00000  Uiso   1.00
C035   C     0.05147   0.71272   0.15327   1.00000  Uiso   1.00
C036   C     0.15142   0.76777   0.15389   1.00000  Uiso   1.00
C037   C     0.05143   0.93400   0.15551   1.00000  Uiso   1.00
C038   C     0.25066   0.71206   0.15355   1.00000  Uiso   1.00
C039   C     0.35189   0.76474   0.15557   1.00000  Uiso   1.00
C040   C     0.35284   0.87741   0.15646   1.00000  Uiso   1.00
C041   C     0.25270   0.93353   0.15577   1.00000  Uiso   1.00
C042   C     0.44993   0.70422   0.15762   1.00000  Uiso   1.00
C043   C     0.55143   0.75920   0.15982   1.00000  Uiso   1.00
C044   C     0.55144   0.87394   0.15904   1.00000  Uiso   1.00
C045   C     0.45291   0.93278   0.15787   1.00000  Uiso   1.00
C046   C     0.65293   0.70405   0.16009   1.00000  Uiso   1.00
C047   C     0.75096   0.76450   0.15777   1.00000  Uiso   1.00
C048   C     0.74997   0.87731   0.15781   1.00000  Uiso   1.00
C049   C     0.64995   0.93273   0.15866   1.00000  Uiso   1.00
C050   C     0.85240   0.71207   0.15578   1.00000  Uiso   1.00
C051   C     0.95163   0.76781   0.15501   1.00000  Uiso   1.00
C052   C     0.85010   0.93357   0.15678   1.00000  Uiso   1.00
C053   C     0.15192   0.87916   0.15517   1.00000  Uiso   1.00
C054   C     0.95095   0.87925   0.15592   1.00000  Uiso   1.00
N001   N     0.44423   0.38343   0.15836   1.00000  Uiso   1.00
N002   N     0.44463   0.59549   0.15694   1.00000  Uiso   1.00
N003   N     0.65804   0.38479   0.15918   1.00000  Uiso   1.00
N004   N     0.65835   0.59473   0.16123   1.00000  Uiso   1.00
N005   N     0.55385   0.48997   0.26073   1.00000  Uiso   1.00
H001   H     0.62940   0.49906   0.28314   1.00000  Uiso   1.00
Fe001  Fe    0.55164   0.48962   0.17691   1.00000  Uiso   1.00
loop_
_geom_bond_atom_site_label_1
_geom_bond_atom_site_label_2
_geom_bond_distance
_geom_bond_site_symmetry_2
_ccdc_geom_bond_type
C001   C002    1.434   .     D
C001   C018    1.434   1_455 S
C001   C037    1.417   1_545 S
C002   C003    1.419   .     S
C002   C005    1.435   .     S
C003   C004    1.430   .     D
C003   C008    1.427   .     S
C004   C019    1.430   1_455 S
C004   C021    1.420   .     S
C005   C006    1.439   .     S
C005   C041    1.427   1_545 D
C006   C007    1.434   .     S
C006   C009    1.434   .     D
C007   C008    1.430   .     S
C007   C012    1.445   .     D
C008   C025    1.419   .     D
C009   C010    1.440   .     S
C009   C045    1.447   1_545 S
C010   C011    1.461   .     D
C010   C013    1.439   .     S
C011   C012    1.448   .     S
C011   C016    1.447   .     S
C012   N001    1.384   .     S
C013   C014    1.433   .     D
C013   C049    1.449   1_545 S
C014   C015    1.437   .     S
C014   C017    1.440   .     S
C015   C016    1.446   .     S
C015   C020    1.431   .     D
C016   N003    1.396   .     D
C017   C018    1.435   .     S
C017   C052    1.428   1_545 D
C018   C001    1.434   1_655 S
C018   C019    1.419   .     D
C019   C004    1.430   1_655 S
C019   C020    1.427   .     S
C020   C031    1.417   .     S
C021   C022    1.420   .     D
C021   C032    1.419   1_455 S
C022   C023    1.416   .     S
C022   C025    1.422   .     S
C023   C024    1.420   .     D
C023   C028    1.422   .     S
C024   C033    1.419   1_455 S
C024   C035    1.420   .     S
C025   C026    1.410   .     S
C026   C027    1.427   .     S
C026   N001    1.375   .     D
C027   C028    1.410   .     S
C027   N002    1.376   .     D
C028   C038    1.419   .     D
C029   C030    1.424   .     S
C029   C031    1.410   .     D
C029   N003    1.377   .     S
C030   C034    1.410   .     S
C030   N004    1.376   .     D
C031   C032    1.422   .     S
C032   C021    1.419   1_655 S
C032   C033    1.417   .     D
C033   C024    1.419   1_655 S
C033   C034    1.421   .     S
C034   C050    1.416   .     D
C035   C036    1.430   .     S
C035   C051    1.429   1_455 D
C036   C038    1.427   .     S
C036   C053    1.419   .     D
C037   C001    1.417   1_565 S
C037   C053    1.435   .     S
C037   C054    1.434   1_455 D
C038   C039    1.430   .     S
C039   C040    1.435   .     S
C039   C042    1.446   .     D
C040   C041    1.439   .     S
C040   C045    1.434   .     D
C041   C005    1.427   1_565 D
C041   C053    1.435   .     S
C042   C043    1.447   .     S
C042   N002    1.386   .     S
C043   C044    1.461   .     S
C043   C046    1.448   .     D
C044   C045    1.439   .     S
C044   C049    1.439   .     D
C045   C009    1.447   1_565 S
C046   C047    1.445   .     S
C046   N004    1.394   .     S
C047   C048    1.437   .     D
C047   C050    1.431   .     S
C048   C049    1.433   .     S
C048   C052    1.440   .     S
C049   C013    1.449   1_565 S
C050   C051    1.427   .     S
C051   C035    1.429   1_655 D
C051   C054    1.419   .     S
C052   C017    1.428   1_565 D
C052   C054    1.436   .     S
C054   C037    1.434   1_655 D
N001   Fe001   1.939   .     S
N002   Fe001   1.938   .     S
N003   Fe001   1.915   .     S
N004   Fe001   1.913   .     S
N005   H001    1.050   .     S
N005   Fe001   1.675   .     S
