data_e-0.6-opt
_audit_creation_date              2024-12-22
_audit_creation_method            'Materials Studio'
_symmetry_space_group_name_H-M    'P1'
_symmetry_Int_Tables_number       1
_symmetry_cell_setting            triclinic
loop_
_symmetry_equiv_pos_as_xyz
  x,y,z
_cell_length_a                    12.4713
_cell_length_b                    12.7343
_cell_length_c                    19.9844
_cell_angle_alpha                 90.0000
_cell_angle_beta                  90.0000
_cell_angle_gamma                 90.0000
loop_
_atom_site_label
_atom_site_type_symbol
_atom_site_fract_x
_atom_site_fract_y
_atom_site_fract_z
_atom_site_U_iso_or_equiv
_atom_site_adp_type
_atom_site_occupancy
C001   C     0.05141   0.04525   0.15513   1.00000  Uiso   1.00
C002   C     0.15192   0.10003   0.15455   1.00000  Uiso   1.00
C003   C     0.15130   0.21142   0.15297   1.00000  Uiso   1.00
C004   C     0.05135   0.26652   0.15207   1.00000  Uiso   1.00
C005   C     0.25272   0.04564   0.15550   1.00000  Uiso   1.00
C006   C     0.35283   0.10180   0.15611   1.00000  Uiso   1.00
C007   C     0.35177   0.21443   0.15527   1.00000  Uiso   1.00
C008   C     0.25052   0.26710   0.15301   1.00000  Uiso   1.00
C009   C     0.45293   0.04643   0.15772   1.00000  Uiso   1.00
C010   C     0.55141   0.10528   0.15865   1.00000  Uiso   1.00
C011   C     0.55132   0.22007   0.15933   1.00000  Uiso   1.00
C012   C     0.44970   0.27499   0.15801   1.00000  Uiso   1.00
C013   C     0.64989   0.04652   0.15832   1.00000  Uiso   1.00
C014   C     0.74989   0.10202   0.15704   1.00000  Uiso   1.00
C015   C     0.75075   0.21482   0.15637   1.00000  Uiso   1.00
C016   C     0.65267   0.27530   0.15864   1.00000  Uiso   1.00
C017   C     0.85006   0.04575   0.15637   1.00000  Uiso   1.00
C018   C     0.95089   0.10003   0.15507   1.00000  Uiso   1.00
C019   C     0.95144   0.21148   0.15361   1.00000  Uiso   1.00
C020   C     0.85222   0.26724   0.15422   1.00000  Uiso   1.00
C021   C     0.05140   0.37796   0.15068   1.00000  Uiso   1.00
C022   C     0.14986   0.43399   0.15011   1.00000  Uiso   1.00
C023   C     0.14993   0.54520   0.15049   1.00000  Uiso   1.00
C024   C     0.05154   0.60129   0.15151   1.00000  Uiso   1.00
C025   C     0.24874   0.37849   0.15150   1.00000  Uiso   1.00
C026   C     0.34668   0.43356   0.15408   1.00000  Uiso   1.00
C027   C     0.34681   0.54544   0.15377   1.00000  Uiso   1.00
C028   C     0.24891   0.60063   0.15186   1.00000  Uiso   1.00
C029   C     0.75637   0.43389   0.15620   1.00000  Uiso   1.00
C030   C     0.75650   0.54558   0.15711   1.00000  Uiso   1.00
C031   C     0.85417   0.37851   0.15342   1.00000  Uiso   1.00
C032   C     0.95303   0.43401   0.15151   1.00000  Uiso   1.00
C033   C     0.95311   0.54531   0.15198   1.00000  Uiso   1.00
C034   C     0.85438   0.60087   0.15451   1.00000  Uiso   1.00
C035   C     0.05151   0.71270   0.15336   1.00000  Uiso   1.00
C036   C     0.15149   0.76775   0.15393   1.00000  Uiso   1.00
C037   C     0.05148   0.93399   0.15557   1.00000  Uiso   1.00
C038   C     0.25069   0.71204   0.15352   1.00000  Uiso   1.00
C039   C     0.35199   0.76468   0.15555   1.00000  Uiso   1.00
C040   C     0.35292   0.87735   0.15645   1.00000  Uiso   1.00
C041   C     0.25278   0.93352   0.15577   1.00000  Uiso   1.00
C042   C     0.45001   0.70413   0.15773   1.00000  Uiso   1.00
C043   C     0.55144   0.75916   0.15989   1.00000  Uiso   1.00
C044   C     0.55146   0.87395   0.15905   1.00000  Uiso   1.00
C045   C     0.45298   0.93278   0.15787   1.00000  Uiso   1.00
C046   C     0.65297   0.70405   0.16012   1.00000  Uiso   1.00
C047   C     0.75099   0.76454   0.15779   1.00000  Uiso   1.00
C048   C     0.75000   0.87729   0.15782   1.00000  Uiso   1.00
C049   C     0.64994   0.93274   0.15865   1.00000  Uiso   1.00
C050   C     0.85244   0.71208   0.15585   1.00000  Uiso   1.00
C051   C     0.95166   0.76780   0.15510   1.00000  Uiso   1.00
C052   C     0.85013   0.93356   0.15683   1.00000  Uiso   1.00
C053   C     0.15199   0.87916   0.15521   1.00000  Uiso   1.00
C054   C     0.95098   0.87924   0.15599   1.00000  Uiso   1.00
N001   N     0.44432   0.38365   0.15889   1.00000  Uiso   1.00
N002   N     0.44471   0.59528   0.15732   1.00000  Uiso   1.00
N003   N     0.65803   0.38473   0.15909   1.00000  Uiso   1.00
N004   N     0.65835   0.59479   0.16126   1.00000  Uiso   1.00
N005   N     0.55212   0.48980   0.26086   1.00000  Uiso   1.00
H001   H     0.62914   0.49926   0.28125   1.00000  Uiso   1.00
Fe001  Fe    0.55158   0.48958   0.17647   1.00000  Uiso   1.00
loop_
_geom_bond_atom_site_label_1
_geom_bond_atom_site_label_2
_geom_bond_distance
_geom_bond_site_symmetry_2
_ccdc_geom_bond_type
C001   C002    1.435   .     D
C001   C018    1.435   1_455 S
C001   C037    1.417   1_545 S
C002   C003    1.419   .     S
C002   C005    1.435   .     S
C003   C004    1.430   .     D
C003   C008    1.426   .     S
C004   C019    1.430   1_455 S
C004   C021    1.419   .     S
C005   C006    1.439   .     S
C005   C041    1.428   1_545 D
C006   C007    1.434   .     S
C006   C009    1.434   .     D
C007   C008    1.431   .     S
C007   C012    1.446   .     D
C008   C025    1.419   .     D
C009   C010    1.439   .     S
C009   C045    1.447   1_545 S
C010   C011    1.462   .     D
C010   C013    1.438   .     S
C011   C012    1.448   .     S
C011   C016    1.446   .     S
C012   N001    1.385   .     S
C013   C014    1.434   .     D
C013   C049    1.449   1_545 S
C014   C015    1.436   .     S
C014   C017    1.440   .     S
C015   C016    1.446   .     S
C015   C020    1.431   .     D
C016   N003    1.395   .     D
C017   C018    1.435   .     S
C017   C052    1.429   1_545 D
C018   C001    1.435   1_655 S
C018   C019    1.420   .     D
C019   C004    1.430   1_655 S
C019   C020    1.427   .     S
C020   C031    1.417   .     S
C021   C022    1.420   .     D
C021   C032    1.419   1_455 S
C022   C023    1.416   .     S
C022   C025    1.422   .     S
C023   C024    1.420   .     D
C023   C028    1.422   .     S
C024   C033    1.420   1_455 S
C024   C035    1.419   .     S
C025   C026    1.409   .     S
C026   C027    1.425   .     S
C026   N001    1.377   .     D
C027   C028    1.409   .     S
C027   N002    1.378   .     D
C028   C038    1.419   .     D
C029   C030    1.423   .     S
C029   C031    1.410   .     D
C029   N003    1.378   .     S
C030   C034    1.410   .     S
C030   N004    1.378   .     D
C031   C032    1.422   .     S
C032   C021    1.419   1_655 S
C032   C033    1.417   .     D
C033   C024    1.420   1_655 S
C033   C034    1.421   .     S
C034   C050    1.417   .     D
C035   C036    1.430   .     S
C035   C051    1.430   1_455 D
C036   C038    1.426   .     S
C036   C053    1.419   .     D
C037   C001    1.417   1_565 S
C037   C053    1.435   .     S
C037   C054    1.434   1_455 D
C038   C039    1.431   .     S
C039   C040    1.435   .     S
C039   C042    1.446   .     D
C040   C041    1.439   .     S
C040   C045    1.434   .     D
C041   C005    1.428   1_565 D
C041   C053    1.435   .     S
C042   C043    1.447   .     S
C042   N002    1.388   .     S
C043   C044    1.462   .     S
C043   C046    1.448   .     D
C044   C045    1.439   .     S
C044   C049    1.438   .     D
C045   C009    1.447   1_565 S
C046   C047    1.446   .     S
C046   N004    1.393   .     S
C047   C048    1.436   .     D
C047   C050    1.431   .     S
C048   C049    1.434   .     S
C048   C052    1.440   .     S
C049   C013    1.449   1_565 S
C050   C051    1.426   .     S
C051   C035    1.430   1_655 D
C051   C054    1.419   .     S
C052   C017    1.429   1_565 D
C052   C054    1.436   .     S
C054   C037    1.434   1_655 D
N001   Fe001   1.932   .     S
N002   Fe001   1.933   .     S
N003   Fe001   1.915   .     S
N004   Fe001   1.913   .     S
N005   H001    1.050   .     S
N005   Fe001   1.686   .     S
