data_e-0.2-opt
_audit_creation_date              2024-12-22
_audit_creation_method            'Materials Studio'
_symmetry_space_group_name_H-M    'P1'
_symmetry_Int_Tables_number       1
_symmetry_cell_setting            triclinic
loop_
_symmetry_equiv_pos_as_xyz
  x,y,z
_cell_length_a                    12.4713
_cell_length_b                    12.7343
_cell_length_c                    19.9844
_cell_angle_alpha                 90.0000
_cell_angle_beta                  90.0000
_cell_angle_gamma                 90.0000
loop_
_atom_site_label
_atom_site_type_symbol
_atom_site_fract_x
_atom_site_fract_y
_atom_site_fract_z
_atom_site_U_iso_or_equiv
_atom_site_adp_type
_atom_site_occupancy
C001   C     0.05143   0.04524   0.15514   1.00000  Uiso   1.00
C002   C     0.15194   0.10004   0.15456   1.00000  Uiso   1.00
C003   C     0.15134   0.21145   0.15299   1.00000  Uiso   1.00
C004   C     0.05136   0.26653   0.15209   1.00000  Uiso   1.00
C005   C     0.25276   0.04566   0.15550   1.00000  Uiso   1.00
C006   C     0.35287   0.10187   0.15608   1.00000  Uiso   1.00
C007   C     0.35186   0.21452   0.15521   1.00000  Uiso   1.00
C008   C     0.25052   0.26713   0.15297   1.00000  Uiso   1.00
C009   C     0.45296   0.04645   0.15772   1.00000  Uiso   1.00
C010   C     0.55140   0.10527   0.15864   1.00000  Uiso   1.00
C011   C     0.55131   0.22014   0.15936   1.00000  Uiso   1.00
C012   C     0.44977   0.27509   0.15801   1.00000  Uiso   1.00
C013   C     0.64986   0.04651   0.15831   1.00000  Uiso   1.00
C014   C     0.74990   0.10203   0.15702   1.00000  Uiso   1.00
C015   C     0.75073   0.21481   0.15634   1.00000  Uiso   1.00
C016   C     0.65268   0.27532   0.15860   1.00000  Uiso   1.00
C017   C     0.85006   0.04576   0.15638   1.00000  Uiso   1.00
C018   C     0.95090   0.10004   0.15508   1.00000  Uiso   1.00
C019   C     0.95144   0.21149   0.15362   1.00000  Uiso   1.00
C020   C     0.85224   0.26724   0.15422   1.00000  Uiso   1.00
C021   C     0.05141   0.37795   0.15071   1.00000  Uiso   1.00
C022   C     0.14987   0.43397   0.15011   1.00000  Uiso   1.00
C023   C     0.14994   0.54521   0.15050   1.00000  Uiso   1.00
C024   C     0.05155   0.60130   0.15156   1.00000  Uiso   1.00
C025   C     0.24879   0.37851   0.15144   1.00000  Uiso   1.00
C026   C     0.34664   0.43364   0.15408   1.00000  Uiso   1.00
C027   C     0.34676   0.54534   0.15376   1.00000  Uiso   1.00
C028   C     0.24896   0.60060   0.15181   1.00000  Uiso   1.00
C029   C     0.75638   0.43392   0.15613   1.00000  Uiso   1.00
C030   C     0.75651   0.54555   0.15706   1.00000  Uiso   1.00
C031   C     0.85415   0.37854   0.15345   1.00000  Uiso   1.00
C032   C     0.95305   0.43400   0.15157   1.00000  Uiso   1.00
C033   C     0.95314   0.54531   0.15205   1.00000  Uiso   1.00
C034   C     0.85437   0.60084   0.15456   1.00000  Uiso   1.00
C035   C     0.05153   0.71268   0.15340   1.00000  Uiso   1.00
C036   C     0.15153   0.76773   0.15396   1.00000  Uiso   1.00
C037   C     0.05150   0.93400   0.15559   1.00000  Uiso   1.00
C038   C     0.25070   0.71201   0.15351   1.00000  Uiso   1.00
C039   C     0.35208   0.76460   0.15550   1.00000  Uiso   1.00
C040   C     0.35296   0.87728   0.15643   1.00000  Uiso   1.00
C041   C     0.25281   0.93350   0.15578   1.00000  Uiso   1.00
C042   C     0.45008   0.70403   0.15774   1.00000  Uiso   1.00
C043   C     0.55142   0.75909   0.15993   1.00000  Uiso   1.00
C044   C     0.55144   0.87396   0.15905   1.00000  Uiso   1.00
C045   C     0.45301   0.93276   0.15787   1.00000  Uiso   1.00
C046   C     0.65299   0.70403   0.16011   1.00000  Uiso   1.00
C047   C     0.75098   0.76455   0.15778   1.00000  Uiso   1.00
C048   C     0.75000   0.87728   0.15782   1.00000  Uiso   1.00
C049   C     0.64991   0.93275   0.15864   1.00000  Uiso   1.00
C050   C     0.85246   0.71207   0.15588   1.00000  Uiso   1.00
C051   C     0.95165   0.76779   0.15514   1.00000  Uiso   1.00
C052   C     0.85012   0.93355   0.15685   1.00000  Uiso   1.00
C053   C     0.15202   0.87914   0.15523   1.00000  Uiso   1.00
C054   C     0.95099   0.87923   0.15601   1.00000  Uiso   1.00
N001   N     0.44447   0.38388   0.15921   1.00000  Uiso   1.00
N002   N     0.44484   0.59506   0.15758   1.00000  Uiso   1.00
N003   N     0.65799   0.38470   0.15908   1.00000  Uiso   1.00
N004   N     0.65833   0.59483   0.16131   1.00000  Uiso   1.00
N005   N     0.55109   0.48969   0.26136   1.00000  Uiso   1.00
H001   H     0.62926   0.49940   0.28019   1.00000  Uiso   1.00
Fe001  Fe    0.55152   0.48956   0.17637   1.00000  Uiso   1.00
loop_
_geom_bond_atom_site_label_1
_geom_bond_atom_site_label_2
_geom_bond_distance
_geom_bond_site_symmetry_2
_ccdc_geom_bond_type
C001   C002    1.435   .     D
C001   C018    1.435   1_455 S
C001   C037    1.417   1_545 S
C002   C003    1.419   .     S
C002   C005    1.436   .     S
C003   C004    1.431   .     D
C003   C008    1.426   .     S
C004   C019    1.430   1_455 S
C004   C021    1.419   .     S
C005   C006    1.439   .     S
C005   C041    1.428   1_545 D
C006   C007    1.435   .     S
C006   C009    1.434   .     D
C007   C008    1.431   .     S
C007   C012    1.445   .     D
C008   C025    1.419   .     D
C009   C010    1.438   .     S
C009   C045    1.448   1_545 S
C010   C011    1.463   .     D
C010   C013    1.438   .     S
C011   C012    1.447   .     S
C011   C016    1.446   .     S
C012   N001    1.387   .     S
C013   C014    1.434   .     D
C013   C049    1.449   1_545 S
C014   C015    1.436   .     S
C014   C017    1.440   .     S
C015   C016    1.446   .     S
C015   C020    1.432   .     D
C016   N003    1.395   .     D
C017   C018    1.435   .     S
C017   C052    1.429   1_545 D
C018   C001    1.435   1_655 S
C018   C019    1.420   .     D
C019   C004    1.430   1_655 S
C019   C020    1.426   .     S
C020   C031    1.418   .     S
C021   C022    1.420   .     D
C021   C032    1.419   1_455 S
C022   C023    1.416   .     S
C022   C025    1.422   .     S
C023   C024    1.420   .     D
C023   C028    1.422   .     S
C024   C033    1.419   1_455 S
C024   C035    1.419   .     S
C025   C026    1.409   .     S
C026   C027    1.422   .     S
C026   N001    1.379   .     D
C027   C028    1.409   .     S
C027   N002    1.379   .     D
C028   C038    1.419   .     D
C029   C030    1.422   .     S
C029   C031    1.410   .     D
C029   N003    1.379   .     S
C030   C034    1.410   .     S
C030   N004    1.379   .     D
C031   C032    1.422   .     S
C032   C021    1.419   1_655 S
C032   C033    1.417   .     D
C033   C024    1.419   1_655 S
C033   C034    1.421   .     S
C034   C050    1.417   .     D
C035   C036    1.431   .     S
C035   C051    1.430   1_455 D
C036   C038    1.426   .     S
C036   C053    1.419   .     D
C037   C001    1.417   1_565 S
C037   C053    1.435   .     S
C037   C054    1.434   1_455 D
C038   C039    1.431   .     S
C039   C040    1.435   .     S
C039   C042    1.446   .     D
C040   C041    1.440   .     S
C040   C045    1.434   .     D
C041   C005    1.428   1_565 D
C041   C053    1.435   .     S
C042   C043    1.446   .     S
C042   N002    1.389   .     S
C043   C044    1.463   .     S
C043   C046    1.448   .     D
C044   C045    1.438   .     S
C044   C049    1.438   .     D
C045   C009    1.448   1_565 S
C046   C047    1.445   .     S
C046   N004    1.392   .     S
C047   C048    1.436   .     D
C047   C050    1.432   .     S
C048   C049    1.434   .     S
C048   C052    1.440   .     S
C049   C013    1.449   1_565 S
C050   C051    1.426   .     S
C051   C035    1.430   1_655 D
C051   C054    1.419   .     S
C052   C017    1.429   1_565 D
C052   C054    1.436   .     S
C054   C037    1.434   1_655 D
N001   Fe001   1.926   .     S
N002   Fe001   1.928   .     S
N003   Fe001   1.915   .     S
N004   Fe001   1.914   .     S
N005   H001    1.052   .     S
N005   Fe001   1.698   .     S
