data_e+0.4-opt
_audit_creation_date              2024-12-22
_audit_creation_method            'Materials Studio'
_symmetry_space_group_name_H-M    'P1'
_symmetry_Int_Tables_number       1
_symmetry_cell_setting            triclinic
loop_
_symmetry_equiv_pos_as_xyz
  x,y,z
_cell_length_a                    12.4713
_cell_length_b                    12.7343
_cell_length_c                    19.9844
_cell_angle_alpha                 90.0000
_cell_angle_beta                  90.0000
_cell_angle_gamma                 90.0000
loop_
_atom_site_label
_atom_site_type_symbol
_atom_site_fract_x
_atom_site_fract_y
_atom_site_fract_z
_atom_site_U_iso_or_equiv
_atom_site_adp_type
_atom_site_occupancy
C001   C     0.05143   0.04526   0.15513   1.00000  Uiso   1.00
C002   C     0.15193   0.10004   0.15455   1.00000  Uiso   1.00
C003   C     0.15133   0.21145   0.15299   1.00000  Uiso   1.00
C004   C     0.05136   0.26653   0.15210   1.00000  Uiso   1.00
C005   C     0.25276   0.04567   0.15550   1.00000  Uiso   1.00
C006   C     0.35287   0.10188   0.15607   1.00000  Uiso   1.00
C007   C     0.35185   0.21456   0.15519   1.00000  Uiso   1.00
C008   C     0.25054   0.26715   0.15296   1.00000  Uiso   1.00
C009   C     0.45296   0.04648   0.15773   1.00000  Uiso   1.00
C010   C     0.55139   0.10531   0.15868   1.00000  Uiso   1.00
C011   C     0.55131   0.22017   0.15945   1.00000  Uiso   1.00
C012   C     0.44976   0.27516   0.15805   1.00000  Uiso   1.00
C013   C     0.64987   0.04653   0.15832   1.00000  Uiso   1.00
C014   C     0.74990   0.10204   0.15702   1.00000  Uiso   1.00
C015   C     0.75074   0.21483   0.15631   1.00000  Uiso   1.00
C016   C     0.65267   0.27537   0.15855   1.00000  Uiso   1.00
C017   C     0.85005   0.04577   0.15639   1.00000  Uiso   1.00
C018   C     0.95090   0.10006   0.15507   1.00000  Uiso   1.00
C019   C     0.95144   0.21150   0.15361   1.00000  Uiso   1.00
C020   C     0.85222   0.26725   0.15420   1.00000  Uiso   1.00
C021   C     0.05142   0.37796   0.15069   1.00000  Uiso   1.00
C022   C     0.14987   0.43398   0.15010   1.00000  Uiso   1.00
C023   C     0.14996   0.54519   0.15049   1.00000  Uiso   1.00
C024   C     0.05157   0.60128   0.15152   1.00000  Uiso   1.00
C025   C     0.24879   0.37849   0.15142   1.00000  Uiso   1.00
C026   C     0.34665   0.43363   0.15404   1.00000  Uiso   1.00
C027   C     0.34679   0.54534   0.15369   1.00000  Uiso   1.00
C028   C     0.24897   0.60062   0.15179   1.00000  Uiso   1.00
C029   C     0.75632   0.43391   0.15603   1.00000  Uiso   1.00
C030   C     0.75648   0.54558   0.15698   1.00000  Uiso   1.00
C031   C     0.85411   0.37855   0.15341   1.00000  Uiso   1.00
C032   C     0.95304   0.43402   0.15155   1.00000  Uiso   1.00
C033   C     0.95314   0.54529   0.15202   1.00000  Uiso   1.00
C034   C     0.85434   0.60083   0.15450   1.00000  Uiso   1.00
C035   C     0.05154   0.71269   0.15338   1.00000  Uiso   1.00
C036   C     0.15153   0.76773   0.15394   1.00000  Uiso   1.00
C037   C     0.05150   0.93399   0.15557   1.00000  Uiso   1.00
C038   C     0.25073   0.71198   0.15348   1.00000  Uiso   1.00
C039   C     0.35208   0.76455   0.15547   1.00000  Uiso   1.00
C040   C     0.35297   0.87727   0.15641   1.00000  Uiso   1.00
C041   C     0.25283   0.93349   0.15577   1.00000  Uiso   1.00
C042   C     0.45010   0.70396   0.15773   1.00000  Uiso   1.00
C043   C     0.55143   0.75907   0.16001   1.00000  Uiso   1.00
C044   C     0.55144   0.87393   0.15908   1.00000  Uiso   1.00
C045   C     0.45300   0.93274   0.15788   1.00000  Uiso   1.00
C046   C     0.65301   0.70399   0.16009   1.00000  Uiso   1.00
C047   C     0.75100   0.76454   0.15773   1.00000  Uiso   1.00
C048   C     0.75000   0.87730   0.15780   1.00000  Uiso   1.00
C049   C     0.64991   0.93273   0.15864   1.00000  Uiso   1.00
C050   C     0.85245   0.71206   0.15584   1.00000  Uiso   1.00
C051   C     0.95166   0.76778   0.15511   1.00000  Uiso   1.00
C052   C     0.85012   0.93356   0.15685   1.00000  Uiso   1.00
C053   C     0.15202   0.87915   0.15521   1.00000  Uiso   1.00
C054   C     0.95099   0.87923   0.15599   1.00000  Uiso   1.00
N001   N     0.44445   0.38398   0.15942   1.00000  Uiso   1.00
N002   N     0.44486   0.59493   0.15770   1.00000  Uiso   1.00
N003   N     0.65795   0.38473   0.15911   1.00000  Uiso   1.00
N004   N     0.65833   0.59483   0.16140   1.00000  Uiso   1.00
N005   N     0.55075   0.48958   0.26212   1.00000  Uiso   1.00
H001   H     0.62979   0.49943   0.27947   1.00000  Uiso   1.00
Fe001  Fe    0.55136   0.48954   0.17660   1.00000  Uiso   1.00
loop_
_geom_bond_atom_site_label_1
_geom_bond_atom_site_label_2
_geom_bond_distance
_geom_bond_site_symmetry_2
_ccdc_geom_bond_type
C001   C002    1.434   .     D
C001   C018    1.435   1_455 S
C001   C037    1.417   1_545 S
C002   C003    1.419   .     S
C002   C005    1.436   .     S
C003   C004    1.431   .     D
C003   C008    1.426   .     S
C004   C019    1.430   1_455 S
C004   C021    1.419   .     S
C005   C006    1.439   .     S
C005   C041    1.428   1_545 D
C006   C007    1.435   .     S
C006   C009    1.434   .     D
C007   C008    1.431   .     S
C007   C012    1.446   .     D
C008   C025    1.418   .     D
C009   C010    1.438   .     S
C009   C045    1.448   1_545 S
C010   C011    1.463   .     D
C010   C013    1.438   .     S
C011   C012    1.447   .     S
C011   C016    1.447   .     S
C012   N001    1.388   .     S
C013   C014    1.434   .     D
C013   C049    1.449   1_545 S
C014   C015    1.437   .     S
C014   C017    1.440   .     S
C015   C016    1.446   .     S
C015   C020    1.431   .     D
C016   N003    1.394   .     D
C017   C018    1.436   .     S
C017   C052    1.429   1_545 D
C018   C001    1.435   1_655 S
C018   C019    1.419   .     D
C019   C004    1.430   1_655 S
C019   C020    1.427   .     S
C020   C031    1.418   .     S
C021   C022    1.420   .     D
C021   C032    1.420   1_455 S
C022   C023    1.416   .     S
C022   C025    1.422   .     S
C023   C024    1.420   .     D
C023   C028    1.422   .     S
C024   C033    1.420   1_455 S
C024   C035    1.419   .     S
C025   C026    1.409   .     S
C026   C027    1.423   .     S
C026   N001    1.378   .     D
C027   C028    1.409   .     S
C027   N002    1.379   .     D
C028   C038    1.419   .     D
C029   C030    1.422   .     S
C029   C031    1.410   .     D
C029   N003    1.379   .     S
C030   C034    1.410   .     S
C030   N004    1.378   .     D
C031   C032    1.422   .     S
C032   C021    1.420   1_655 S
C032   C033    1.417   .     D
C033   C024    1.420   1_655 S
C033   C034    1.422   .     S
C034   C050    1.417   .     D
C035   C036    1.431   .     S
C035   C051    1.430   1_455 D
C036   C038    1.426   .     S
C036   C053    1.419   .     D
C037   C001    1.417   1_565 S
C037   C053    1.435   .     S
C037   C054    1.434   1_455 D
C038   C039    1.431   .     S
C039   C040    1.436   .     S
C039   C042    1.446   .     D
C040   C041    1.440   .     S
C040   C045    1.434   .     D
C041   C005    1.428   1_565 D
C041   C053    1.435   .     S
C042   C043    1.446   .     S
C042   N002    1.390   .     S
C043   C044    1.463   .     S
C043   C046    1.448   .     D
C044   C045    1.438   .     S
C044   C049    1.438   .     D
C045   C009    1.448   1_565 S
C046   C047    1.446   .     S
C046   N004    1.392   .     S
C047   C048    1.436   .     D
C047   C050    1.431   .     S
C048   C049    1.434   .     S
C048   C052    1.440   .     S
C049   C013    1.449   1_565 S
C050   C051    1.426   .     S
C051   C035    1.430   1_655 D
C051   C054    1.419   .     S
C052   C017    1.429   1_565 D
C052   C054    1.436   .     S
C054   C037    1.434   1_655 D
N001   Fe001   1.924   .     S
N002   Fe001   1.926   .     S
N003   Fe001   1.916   .     S
N004   Fe001   1.916   .     S
N005   H001    1.053   .     S
N005   Fe001   1.709   .     S
