data_e+0.8-opt
_audit_creation_date              2024-12-22
_audit_creation_method            'Materials Studio'
_symmetry_space_group_name_H-M    'P1'
_symmetry_Int_Tables_number       1
_symmetry_cell_setting            triclinic
loop_
_symmetry_equiv_pos_as_xyz
  x,y,z
_cell_length_a                    12.4713
_cell_length_b                    12.7343
_cell_length_c                    19.9844
_cell_angle_alpha                 90.0000
_cell_angle_beta                  90.0000
_cell_angle_gamma                 90.0000
loop_
_atom_site_label
_atom_site_type_symbol
_atom_site_fract_x
_atom_site_fract_y
_atom_site_fract_z
_atom_site_U_iso_or_equiv
_atom_site_adp_type
_atom_site_occupancy
C001   C     0.05139   0.04525   0.15514   1.00000  Uiso   1.00
C002   C     0.15185   0.10002   0.15456   1.00000  Uiso   1.00
C003   C     0.15121   0.21137   0.15299   1.00000  Uiso   1.00
C004   C     0.05133   0.26649   0.15210   1.00000  Uiso   1.00
C005   C     0.25265   0.04561   0.15551   1.00000  Uiso   1.00
C006   C     0.35276   0.10173   0.15610   1.00000  Uiso   1.00
C007   C     0.35165   0.21439   0.15523   1.00000  Uiso   1.00
C008   C     0.25050   0.26708   0.15297   1.00000  Uiso   1.00
C009   C     0.45284   0.04644   0.15775   1.00000  Uiso   1.00
C010   C     0.55141   0.10538   0.15873   1.00000  Uiso   1.00
C011   C     0.55132   0.22006   0.15952   1.00000  Uiso   1.00
C012   C     0.44957   0.27494   0.15801   1.00000  Uiso   1.00
C013   C     0.64997   0.04653   0.15837   1.00000  Uiso   1.00
C014   C     0.74992   0.10199   0.15702   1.00000  Uiso   1.00
C015   C     0.75079   0.21485   0.15631   1.00000  Uiso   1.00
C016   C     0.65270   0.27533   0.15863   1.00000  Uiso   1.00
C017   C     0.85009   0.04574   0.15637   1.00000  Uiso   1.00
C018   C     0.95092   0.10004   0.15507   1.00000  Uiso   1.00
C019   C     0.95146   0.21146   0.15362   1.00000  Uiso   1.00
C020   C     0.85219   0.26723   0.15417   1.00000  Uiso   1.00
C021   C     0.05138   0.37805   0.15067   1.00000  Uiso   1.00
C022   C     0.14983   0.43398   0.15014   1.00000  Uiso   1.00
C023   C     0.14992   0.54519   0.15052   1.00000  Uiso   1.00
C024   C     0.05154   0.60120   0.15149   1.00000  Uiso   1.00
C025   C     0.24871   0.37842   0.15145   1.00000  Uiso   1.00
C026   C     0.34670   0.43338   0.15390   1.00000  Uiso   1.00
C027   C     0.34685   0.54558   0.15357   1.00000  Uiso   1.00
C028   C     0.24890   0.60069   0.15180   1.00000  Uiso   1.00
C029   C     0.75626   0.43376   0.15619   1.00000  Uiso   1.00
C030   C     0.75641   0.54573   0.15712   1.00000  Uiso   1.00
C031   C     0.85411   0.37849   0.15335   1.00000  Uiso   1.00
C032   C     0.95301   0.43402   0.15148   1.00000  Uiso   1.00
C033   C     0.95310   0.54530   0.15194   1.00000  Uiso   1.00
C034   C     0.85434   0.60090   0.15442   1.00000  Uiso   1.00
C035   C     0.05151   0.71273   0.15336   1.00000  Uiso   1.00
C036   C     0.15142   0.76780   0.15393   1.00000  Uiso   1.00
C037   C     0.05146   0.93400   0.15557   1.00000  Uiso   1.00
C038   C     0.25070   0.71205   0.15347   1.00000  Uiso   1.00
C039   C     0.35189   0.76470   0.15548   1.00000  Uiso   1.00
C040   C     0.35286   0.87740   0.15642   1.00000  Uiso   1.00
C041   C     0.25272   0.93354   0.15578   1.00000  Uiso   1.00
C042   C     0.44992   0.70415   0.15769   1.00000  Uiso   1.00
C043   C     0.55145   0.75918   0.16006   1.00000  Uiso   1.00
C044   C     0.55146   0.87385   0.15912   1.00000  Uiso   1.00
C045   C     0.45289   0.93276   0.15789   1.00000  Uiso   1.00
C046   C     0.65304   0.70403   0.16013   1.00000  Uiso   1.00
C047   C     0.75105   0.76452   0.15772   1.00000  Uiso   1.00
C048   C     0.75003   0.87734   0.15779   1.00000  Uiso   1.00
C049   C     0.65001   0.93274   0.15868   1.00000  Uiso   1.00
C050   C     0.85242   0.71209   0.15577   1.00000  Uiso   1.00
C051   C     0.95169   0.76783   0.15508   1.00000  Uiso   1.00
C052   C     0.85016   0.93359   0.15683   1.00000  Uiso   1.00
C053   C     0.15193   0.87916   0.15520   1.00000  Uiso   1.00
C054   C     0.95101   0.87924   0.15598   1.00000  Uiso   1.00
N001   N     0.44404   0.38351   0.15904   1.00000  Uiso   1.00
N002   N     0.44446   0.59537   0.15747   1.00000  Uiso   1.00
N003   N     0.65817   0.38469   0.15944   1.00000  Uiso   1.00
N004   N     0.65850   0.59486   0.16160   1.00000  Uiso   1.00
N005   N     0.55218   0.48971   0.26173   1.00000  Uiso   1.00
H001   H     0.63067   0.49940   0.27991   1.00000  Uiso   1.00
Fe001  Fe    0.55133   0.48956   0.17658   1.00000  Uiso   1.00
loop_
_geom_bond_atom_site_label_1
_geom_bond_atom_site_label_2
_geom_bond_distance
_geom_bond_site_symmetry_2
_ccdc_geom_bond_type
C001   C002    1.434   .     D
C001   C018    1.434   1_455 S
C001   C037    1.417   1_545 S
C002   C003    1.418   .     S
C002   C005    1.436   .     S
C003   C004    1.430   .     D
C003   C008    1.427   .     S
C004   C019    1.429   1_455 S
C004   C021    1.421   .     S
C005   C006    1.439   .     S
C005   C041    1.427   1_545 D
C006   C007    1.435   .     S
C006   C009    1.433   .     D
C007   C008    1.429   .     S
C007   C012    1.445   .     D
C008   C025    1.418   .     D
C009   C010    1.440   .     S
C009   C045    1.448   1_545 S
C010   C011    1.460   .     D
C010   C013    1.440   .     S
C011   C012    1.449   .     S
C011   C016    1.447   .     S
C012   N001    1.385   .     S
C013   C014    1.433   .     D
C013   C049    1.449   1_545 S
C014   C015    1.437   .     S
C014   C017    1.440   .     S
C015   C016    1.446   .     S
C015   C020    1.430   .     D
C016   N003    1.394   .     D
C017   C018    1.435   .     S
C017   C052    1.428   1_545 D
C018   C001    1.434   1_655 S
C018   C019    1.419   .     D
C019   C004    1.429   1_655 S
C019   C020    1.427   .     S
C020   C031    1.417   .     S
C021   C022    1.419   .     D
C021   C032    1.419   1_455 S
C022   C023    1.416   .     S
C022   C025    1.422   .     S
C023   C024    1.419   .     D
C023   C028    1.423   .     S
C024   C033    1.419   1_455 S
C024   C035    1.421   .     S
C025   C026    1.409   .     S
C026   C027    1.429   .     S
C026   N001    1.374   .     D
C027   C028    1.409   .     S
C027   N002    1.375   .     D
C028   C038    1.419   .     D
C029   C030    1.426   .     S
C029   C031    1.410   .     D
C029   N003    1.375   .     S
C030   C034    1.410   .     S
C030   N004    1.375   .     D
C031   C032    1.422   .     S
C032   C021    1.419   1_655 S
C032   C033    1.417   .     D
C033   C024    1.419   1_655 S
C033   C034    1.422   .     S
C034   C050    1.416   .     D
C035   C036    1.430   .     S
C035   C051    1.429   1_455 D
C036   C038    1.427   .     S
C036   C053    1.418   .     D
C037   C001    1.417   1_565 S
C037   C053    1.434   .     S
C037   C054    1.434   1_455 D
C038   C039    1.430   .     S
C039   C040    1.435   .     S
C039   C042    1.446   .     D
C040   C041    1.439   .     S
C040   C045    1.433   .     D
C041   C005    1.427   1_565 D
C041   C053    1.435   .     S
C042   C043    1.448   .     S
C042   N002    1.387   .     S
C043   C044    1.460   .     S
C043   C046    1.449   .     D
C044   C045    1.440   .     S
C044   C049    1.440   .     D
C045   C009    1.448   1_565 S
C046   C047    1.446   .     S
C046   N004    1.392   .     S
C047   C048    1.437   .     D
C047   C050    1.430   .     S
C048   C049    1.433   .     S
C048   C052    1.440   .     S
C049   C013    1.449   1_565 S
C050   C051    1.427   .     S
C051   C035    1.429   1_655 D
C051   C054    1.419   .     S
C052   C017    1.428   1_565 D
C052   C054    1.436   .     S
C054   C037    1.434   1_655 D
N001   Fe001   1.933   .     S
N002   Fe001   1.933   .     S
N003   Fe001   1.917   .     S
N004   Fe001   1.917   .     S
N005   H001    1.051   .     S
N005   Fe001   1.702   .     S
