data_e+0.0-opt
_audit_creation_date              2024-12-22
_audit_creation_method            'Materials Studio'
_symmetry_space_group_name_H-M    'P1'
_symmetry_Int_Tables_number       1
_symmetry_cell_setting            triclinic
loop_
_symmetry_equiv_pos_as_xyz
  x,y,z
_cell_length_a                    12.4713
_cell_length_b                    12.7343
_cell_length_c                    19.9844
_cell_angle_alpha                 90.0000
_cell_angle_beta                  90.0000
_cell_angle_gamma                 90.0000
loop_
_atom_site_label
_atom_site_type_symbol
_atom_site_fract_x
_atom_site_fract_y
_atom_site_fract_z
_atom_site_U_iso_or_equiv
_atom_site_adp_type
_atom_site_occupancy
C001   C     0.05143   0.04525   0.15514   1.00000  Uiso   1.00
C002   C     0.15194   0.10003   0.15456   1.00000  Uiso   1.00
C003   C     0.15134   0.21146   0.15299   1.00000  Uiso   1.00
C004   C     0.05137   0.26652   0.15210   1.00000  Uiso   1.00
C005   C     0.25276   0.04566   0.15550   1.00000  Uiso   1.00
C006   C     0.35286   0.10185   0.15608   1.00000  Uiso   1.00
C007   C     0.35183   0.21450   0.15520   1.00000  Uiso   1.00
C008   C     0.25053   0.26713   0.15297   1.00000  Uiso   1.00
C009   C     0.45297   0.04646   0.15771   1.00000  Uiso   1.00
C010   C     0.55140   0.10527   0.15863   1.00000  Uiso   1.00
C011   C     0.55131   0.22011   0.15936   1.00000  Uiso   1.00
C012   C     0.44977   0.27512   0.15797   1.00000  Uiso   1.00
C013   C     0.64987   0.04652   0.15830   1.00000  Uiso   1.00
C014   C     0.74991   0.10201   0.15701   1.00000  Uiso   1.00
C015   C     0.75076   0.21479   0.15633   1.00000  Uiso   1.00
C016   C     0.65269   0.27532   0.15857   1.00000  Uiso   1.00
C017   C     0.85006   0.04576   0.15638   1.00000  Uiso   1.00
C018   C     0.95091   0.10004   0.15507   1.00000  Uiso   1.00
C019   C     0.95144   0.21150   0.15362   1.00000  Uiso   1.00
C020   C     0.85224   0.26723   0.15422   1.00000  Uiso   1.00
C021   C     0.05142   0.37796   0.15072   1.00000  Uiso   1.00
C022   C     0.14986   0.43397   0.15012   1.00000  Uiso   1.00
C023   C     0.14994   0.54521   0.15051   1.00000  Uiso   1.00
C024   C     0.05155   0.60129   0.15157   1.00000  Uiso   1.00
C025   C     0.24876   0.37850   0.15144   1.00000  Uiso   1.00
C026   C     0.34665   0.43360   0.15403   1.00000  Uiso   1.00
C027   C     0.34678   0.54538   0.15373   1.00000  Uiso   1.00
C028   C     0.24893   0.60061   0.15181   1.00000  Uiso   1.00
C029   C     0.75637   0.43390   0.15613   1.00000  Uiso   1.00
C030   C     0.75651   0.54557   0.15706   1.00000  Uiso   1.00
C031   C     0.85416   0.37854   0.15346   1.00000  Uiso   1.00
C032   C     0.95305   0.43400   0.15158   1.00000  Uiso   1.00
C033   C     0.95314   0.54531   0.15208   1.00000  Uiso   1.00
C034   C     0.85436   0.60083   0.15458   1.00000  Uiso   1.00
C035   C     0.05153   0.71269   0.15342   1.00000  Uiso   1.00
C036   C     0.15152   0.76773   0.15397   1.00000  Uiso   1.00
C037   C     0.05150   0.93400   0.15559   1.00000  Uiso   1.00
C038   C     0.25071   0.71200   0.15351   1.00000  Uiso   1.00
C039   C     0.35205   0.76462   0.15550   1.00000  Uiso   1.00
C040   C     0.35296   0.87730   0.15643   1.00000  Uiso   1.00
C041   C     0.25281   0.93350   0.15578   1.00000  Uiso   1.00
C042   C     0.45007   0.70401   0.15772   1.00000  Uiso   1.00
C043   C     0.55143   0.75912   0.15994   1.00000  Uiso   1.00
C044   C     0.55144   0.87396   0.15905   1.00000  Uiso   1.00
C045   C     0.45301   0.93275   0.15786   1.00000  Uiso   1.00
C046   C     0.65299   0.70401   0.16009   1.00000  Uiso   1.00
C047   C     0.75100   0.76456   0.15778   1.00000  Uiso   1.00
C048   C     0.75001   0.87730   0.15782   1.00000  Uiso   1.00
C049   C     0.64991   0.93274   0.15863   1.00000  Uiso   1.00
C050   C     0.85246   0.71207   0.15590   1.00000  Uiso   1.00
C051   C     0.95165   0.76778   0.15515   1.00000  Uiso   1.00
C052   C     0.85013   0.93356   0.15686   1.00000  Uiso   1.00
C053   C     0.15202   0.87915   0.15523   1.00000  Uiso   1.00
C054   C     0.95099   0.87923   0.15602   1.00000  Uiso   1.00
N001   N     0.44448   0.38392   0.15916   1.00000  Uiso   1.00
N002   N     0.44485   0.59502   0.15757   1.00000  Uiso   1.00
N003   N     0.65800   0.38471   0.15908   1.00000  Uiso   1.00
N004   N     0.65834   0.59482   0.16129   1.00000  Uiso   1.00
N005   N     0.55099   0.48966   0.26151   1.00000  Uiso   1.00
H001   H     0.62928   0.49946   0.28012   1.00000  Uiso   1.00
Fe001  Fe    0.55151   0.48956   0.17641   1.00000  Uiso   1.00
loop_
_geom_bond_atom_site_label_1
_geom_bond_atom_site_label_2
_geom_bond_distance
_geom_bond_site_symmetry_2
_ccdc_geom_bond_type
C001   C002    1.435   .     D
C001   C018    1.435   1_455 S
C001   C037    1.417   1_545 S
C002   C003    1.419   .     S
C002   C005    1.435   .     S
C003   C004    1.431   .     D
C003   C008    1.426   .     S
C004   C019    1.430   1_455 S
C004   C021    1.419   .     S
C005   C006    1.439   .     S
C005   C041    1.428   1_545 D
C006   C007    1.435   .     S
C006   C009    1.434   .     D
C007   C008    1.431   .     S
C007   C012    1.446   .     D
C008   C025    1.419   .     D
C009   C010    1.438   .     S
C009   C045    1.448   1_545 S
C010   C011    1.462   .     D
C010   C013    1.438   .     S
C011   C012    1.447   .     S
C011   C016    1.447   .     S
C012   N001    1.387   .     S
C013   C014    1.434   .     D
C013   C049    1.449   1_545 S
C014   C015    1.436   .     S
C014   C017    1.440   .     S
C015   C016    1.446   .     S
C015   C020    1.432   .     D
C016   N003    1.395   .     D
C017   C018    1.435   .     S
C017   C052    1.429   1_545 D
C018   C001    1.435   1_655 S
C018   C019    1.420   .     D
C019   C004    1.430   1_655 S
C019   C020    1.426   .     S
C020   C031    1.418   .     S
C021   C022    1.420   .     D
C021   C032    1.419   1_455 S
C022   C023    1.417   .     S
C022   C025    1.422   .     S
C023   C024    1.420   .     D
C023   C028    1.422   .     S
C024   C033    1.419   1_455 S
C024   C035    1.419   .     S
C025   C026    1.409   .     S
C026   C027    1.423   .     S
C026   N001    1.378   .     D
C027   C028    1.409   .     S
C027   N002    1.379   .     D
C028   C038    1.419   .     D
C029   C030    1.422   .     S
C029   C031    1.410   .     D
C029   N003    1.379   .     S
C030   C034    1.410   .     S
C030   N004    1.378   .     D
C031   C032    1.422   .     S
C032   C021    1.419   1_655 S
C032   C033    1.417   .     D
C033   C024    1.419   1_655 S
C033   C034    1.421   .     S
C034   C050    1.417   .     D
C035   C036    1.431   .     S
C035   C051    1.430   1_455 D
C036   C038    1.426   .     S
C036   C053    1.419   .     D
C037   C001    1.417   1_565 S
C037   C053    1.435   .     S
C037   C054    1.434   1_455 D
C038   C039    1.431   .     S
C039   C040    1.435   .     S
C039   C042    1.446   .     D
C040   C041    1.440   .     S
C040   C045    1.434   .     D
C041   C005    1.428   1_565 D
C041   C053    1.435   .     S
C042   C043    1.447   .     S
C042   N002    1.389   .     S
C043   C044    1.463   .     S
C043   C046    1.448   .     D
C044   C045    1.438   .     S
C044   C049    1.438   .     D
C045   C009    1.448   1_565 S
C046   C047    1.446   .     S
C046   N004    1.392   .     S
C047   C048    1.436   .     D
C047   C050    1.432   .     S
C048   C049    1.434   .     S
C048   C052    1.440   .     S
C049   C013    1.449   1_565 S
C050   C051    1.426   .     S
C051   C035    1.430   1_655 D
C051   C054    1.419   .     S
C052   C017    1.429   1_565 D
C052   C054    1.436   .     S
C054   C037    1.434   1_655 D
N001   Fe001   1.926   .     S
N002   Fe001   1.927   .     S
N003   Fe001   1.915   .     S
N004   Fe001   1.914   .     S
N005   H001    1.052   .     S
N005   Fe001   1.701   .     S
