data_e+1.0-opt
_audit_creation_date              2024-12-22
_audit_creation_method            'Materials Studio'
_symmetry_space_group_name_H-M    'P1'
_symmetry_Int_Tables_number       1
_symmetry_cell_setting            triclinic
loop_
_symmetry_equiv_pos_as_xyz
  x,y,z
_cell_length_a                    12.4713
_cell_length_b                    12.7343
_cell_length_c                    19.9844
_cell_angle_alpha                 90.0000
_cell_angle_beta                  90.0000
_cell_angle_gamma                 90.0000
loop_
_atom_site_label
_atom_site_type_symbol
_atom_site_fract_x
_atom_site_fract_y
_atom_site_fract_z
_atom_site_U_iso_or_equiv
_atom_site_adp_type
_atom_site_occupancy
C001   C     0.05135   0.04525   0.15515   1.00000  Uiso   1.00
C002   C     0.15178   0.10000   0.15457   1.00000  Uiso   1.00
C003   C     0.15114   0.21134   0.15300   1.00000  Uiso   1.00
C004   C     0.05130   0.26645   0.15209   1.00000  Uiso   1.00
C005   C     0.25258   0.04559   0.15553   1.00000  Uiso   1.00
C006   C     0.35268   0.10165   0.15612   1.00000  Uiso   1.00
C007   C     0.35155   0.21431   0.15524   1.00000  Uiso   1.00
C008   C     0.25047   0.26703   0.15298   1.00000  Uiso   1.00
C009   C     0.45277   0.04643   0.15778   1.00000  Uiso   1.00
C010   C     0.55139   0.10541   0.15877   1.00000  Uiso   1.00
C011   C     0.55131   0.22001   0.15956   1.00000  Uiso   1.00
C012   C     0.44946   0.27483   0.15798   1.00000  Uiso   1.00
C013   C     0.65000   0.04654   0.15841   1.00000  Uiso   1.00
C014   C     0.74993   0.10196   0.15703   1.00000  Uiso   1.00
C015   C     0.75081   0.21485   0.15633   1.00000  Uiso   1.00
C016   C     0.65272   0.27530   0.15870   1.00000  Uiso   1.00
C017   C     0.85008   0.04572   0.15635   1.00000  Uiso   1.00
C018   C     0.95092   0.10003   0.15507   1.00000  Uiso   1.00
C019   C     0.95147   0.21143   0.15361   1.00000  Uiso   1.00
C020   C     0.85217   0.26722   0.15415   1.00000  Uiso   1.00
C021   C     0.05136   0.37811   0.15065   1.00000  Uiso   1.00
C022   C     0.14979   0.43398   0.15016   1.00000  Uiso   1.00
C023   C     0.14987   0.54520   0.15052   1.00000  Uiso   1.00
C024   C     0.05151   0.60114   0.15144   1.00000  Uiso   1.00
C025   C     0.24868   0.37840   0.15146   1.00000  Uiso   1.00
C026   C     0.34672   0.43324   0.15380   1.00000  Uiso   1.00
C027   C     0.34687   0.54573   0.15349   1.00000  Uiso   1.00
C028   C     0.24887   0.60071   0.15178   1.00000  Uiso   1.00
C029   C     0.75626   0.43366   0.15635   1.00000  Uiso   1.00
C030   C     0.75639   0.54582   0.15724   1.00000  Uiso   1.00
C031   C     0.85410   0.37846   0.15333   1.00000  Uiso   1.00
C032   C     0.95300   0.43401   0.15141   1.00000  Uiso   1.00
C033   C     0.95309   0.54531   0.15187   1.00000  Uiso   1.00
C034   C     0.85431   0.60093   0.15439   1.00000  Uiso   1.00
C035   C     0.05147   0.71277   0.15332   1.00000  Uiso   1.00
C036   C     0.15134   0.76783   0.15391   1.00000  Uiso   1.00
C037   C     0.05142   0.93399   0.15557   1.00000  Uiso   1.00
C038   C     0.25066   0.71210   0.15346   1.00000  Uiso   1.00
C039   C     0.35179   0.76477   0.15547   1.00000  Uiso   1.00
C040   C     0.35278   0.87747   0.15642   1.00000  Uiso   1.00
C041   C     0.25265   0.93355   0.15578   1.00000  Uiso   1.00
C042   C     0.44980   0.70425   0.15768   1.00000  Uiso   1.00
C043   C     0.55144   0.75922   0.16010   1.00000  Uiso   1.00
C044   C     0.55144   0.87382   0.15915   1.00000  Uiso   1.00
C045   C     0.45282   0.93277   0.15791   1.00000  Uiso   1.00
C046   C     0.65304   0.70406   0.16016   1.00000  Uiso   1.00
C047   C     0.75106   0.76452   0.15772   1.00000  Uiso   1.00
C048   C     0.75004   0.87738   0.15780   1.00000  Uiso   1.00
C049   C     0.65005   0.93273   0.15872   1.00000  Uiso   1.00
C050   C     0.85240   0.71211   0.15573   1.00000  Uiso   1.00
C051   C     0.95169   0.76785   0.15504   1.00000  Uiso   1.00
C052   C     0.85015   0.93361   0.15680   1.00000  Uiso   1.00
C053   C     0.15186   0.87918   0.15520   1.00000  Uiso   1.00
C054   C     0.95101   0.87926   0.15595   1.00000  Uiso   1.00
N001   N     0.44384   0.38330   0.15884   1.00000  Uiso   1.00
N002   N     0.44425   0.59559   0.15740   1.00000  Uiso   1.00
N003   N     0.65830   0.38464   0.15967   1.00000  Uiso   1.00
N004   N     0.65860   0.59488   0.16170   1.00000  Uiso   1.00
N005   N     0.55316   0.48985   0.26149   1.00000  Uiso   1.00
H001   H     0.63145   0.49929   0.28006   1.00000  Uiso   1.00
Fe001  Fe    0.55134   0.48960   0.17655   1.00000  Uiso   1.00
loop_
_geom_bond_atom_site_label_1
_geom_bond_atom_site_label_2
_geom_bond_distance
_geom_bond_site_symmetry_2
_ccdc_geom_bond_type
C001   C002    1.433   .     D
C001   C018    1.434   1_455 S
C001   C037    1.417   1_545 S
C002   C003    1.418   .     S
C002   C005    1.436   .     S
C003   C004    1.429   .     D
C003   C008    1.427   .     S
C004   C019    1.429   1_455 S
C004   C021    1.422   .     S
C005   C006    1.438   .     S
C005   C041    1.427   1_545 D
C006   C007    1.435   .     S
C006   C009    1.433   .     D
C007   C008    1.429   .     S
C007   C012    1.445   .     D
C008   C025    1.419   .     D
C009   C010    1.441   .     S
C009   C045    1.447   1_545 S
C010   C011    1.459   .     D
C010   C013    1.440   .     S
C011   C012    1.450   .     S
C011   C016    1.448   .     S
C012   N001    1.383   .     S
C013   C014    1.432   .     D
C013   C049    1.449   1_545 S
C014   C015    1.438   .     S
C014   C017    1.440   .     S
C015   C016    1.446   .     S
C015   C020    1.430   .     D
C016   N003    1.394   .     D
C017   C018    1.435   .     S
C017   C052    1.428   1_545 D
C018   C001    1.434   1_655 S
C018   C019    1.419   .     D
C019   C004    1.429   1_655 S
C019   C020    1.428   .     S
C020   C031    1.417   .     S
C021   C022    1.419   .     D
C021   C032    1.418   1_455 S
C022   C023    1.416   .     S
C022   C025    1.422   .     S
C023   C024    1.419   .     D
C023   C028    1.423   .     S
C024   C033    1.418   1_455 S
C024   C035    1.422   .     S
C025   C026    1.409   .     S
C026   C027    1.432   .     S
C026   N001    1.372   .     D
C027   C028    1.409   .     S
C027   N002    1.373   .     D
C028   C038    1.419   .     D
C029   C030    1.428   .     S
C029   C031    1.410   .     D
C029   N003    1.373   .     S
C030   C034    1.410   .     S
C030   N004    1.373   .     D
C031   C032    1.422   .     S
C032   C021    1.418   1_655 S
C032   C033    1.417   .     D
C033   C024    1.418   1_655 S
C033   C034    1.422   .     S
C034   C050    1.416   .     D
C035   C036    1.429   .     S
C035   C051    1.429   1_455 D
C036   C038    1.428   .     S
C036   C053    1.418   .     D
C037   C001    1.417   1_565 S
C037   C053    1.434   .     S
C037   C054    1.433   1_455 D
C038   C039    1.429   .     S
C039   C040    1.435   .     S
C039   C042    1.446   .     D
C040   C041    1.439   .     S
C040   C045    1.433   .     D
C041   C005    1.427   1_565 D
C041   C053    1.435   .     S
C042   C043    1.449   .     S
C042   N002    1.385   .     S
C043   C044    1.460   .     S
C043   C046    1.449   .     D
C044   C045    1.441   .     S
C044   C049    1.441   .     D
C045   C009    1.447   1_565 S
C046   C047    1.445   .     S
C046   N004    1.392   .     S
C047   C048    1.437   .     D
C047   C050    1.430   .     S
C048   C049    1.433   .     S
C048   C052    1.439   .     S
C049   C013    1.449   1_565 S
C050   C051    1.427   .     S
C051   C035    1.429   1_655 D
C051   C054    1.419   .     S
C052   C017    1.428   1_565 D
C052   C054    1.436   .     S
C054   C037    1.433   1_655 D
N001   Fe001   1.938   .     S
N002   Fe001   1.937   .     S
N003   Fe001   1.918   .     S
N004   Fe001   1.917   .     S
N005   H001    1.051   .     S
N005   Fe001   1.698   .     S
