data_e+1-opt
_audit_creation_date              2024-12-22
_audit_creation_method            'Materials Studio'
_symmetry_space_group_name_H-M    'P1'
_symmetry_Int_Tables_number       1
_symmetry_cell_setting            triclinic
loop_
_symmetry_equiv_pos_as_xyz
  x,y,z
_cell_length_a                    12.4736
_cell_length_b                    12.7367
_cell_length_c                    19.9881
_cell_angle_alpha                 90.0000
_cell_angle_beta                  90.0000
_cell_angle_gamma                 90.0000
loop_
_atom_site_label
_atom_site_type_symbol
_atom_site_fract_x
_atom_site_fract_y
_atom_site_fract_z
_atom_site_U_iso_or_equiv
_atom_site_adp_type
_atom_site_occupancy
C001   C     0.05273   0.04500   0.15525   1.00000  Uiso   1.00
C002   C     0.15300   0.09973   0.15507   1.00000  Uiso   1.00
C003   C     0.15237   0.21101   0.15421   1.00000  Uiso   1.00
C004   C     0.05273   0.26609   0.15344   1.00000  Uiso   1.00
C005   C     0.25386   0.04528   0.15587   1.00000  Uiso   1.00
C006   C     0.35395   0.10134   0.15603   1.00000  Uiso   1.00
C007   C     0.35286   0.21415   0.15548   1.00000  Uiso   1.00
C008   C     0.25178   0.26677   0.15451   1.00000  Uiso   1.00
C009   C     0.45390   0.04616   0.15690   1.00000  Uiso   1.00
C010   C     0.55274   0.10550   0.15685   1.00000  Uiso   1.00
C011   C     0.55274   0.21956   0.15695   1.00000  Uiso   1.00
C012   C     0.45061   0.27468   0.15667   1.00000  Uiso   1.00
C013   C     0.65158   0.04616   0.15651   1.00000  Uiso   1.00
C014   C     0.75152   0.10134   0.15543   1.00000  Uiso   1.00
C015   C     0.75260   0.21415   0.15459   1.00000  Uiso   1.00
C016   C     0.65486   0.27468   0.15583   1.00000  Uiso   1.00
C017   C     0.85160   0.04528   0.15535   1.00000  Uiso   1.00
C018   C     0.95246   0.09973   0.15474   1.00000  Uiso   1.00
C019   C     0.95308   0.21101   0.15374   1.00000  Uiso   1.00
C020   C     0.85368   0.26677   0.15353   1.00000  Uiso   1.00
C021   C     0.05274   0.37800   0.15302   1.00000  Uiso   1.00
C022   C     0.15094   0.43385   0.15373   1.00000  Uiso   1.00
C023   C     0.15097   0.54495   0.15434   1.00000  Uiso   1.00
C024   C     0.05275   0.60079   0.15416   1.00000  Uiso   1.00
C025   C     0.24995   0.37804   0.15450   1.00000  Uiso   1.00
C026   C     0.34779   0.43273   0.15643   1.00000  Uiso   1.00
C027   C     0.34784   0.54601   0.15753   1.00000  Uiso   1.00
C028   C     0.25003   0.60073   0.15589   1.00000  Uiso   1.00
C029   C     0.75767   0.43274   0.15456   1.00000  Uiso   1.00
C030   C     0.75764   0.54604   0.15553   1.00000  Uiso   1.00
C031   C     0.85552   0.37804   0.15311   1.00000  Uiso   1.00
C032   C     0.95454   0.43385   0.15287   1.00000  Uiso   1.00
C033   C     0.95453   0.54496   0.15344   1.00000  Uiso   1.00
C034   C     0.85547   0.60075   0.15434   1.00000  Uiso   1.00
C035   C     0.05274   0.71267   0.15527   1.00000  Uiso   1.00
C036   C     0.15242   0.76771   0.15609   1.00000  Uiso   1.00
C037   C     0.05274   0.93372   0.15587   1.00000  Uiso   1.00
C038   C     0.25182   0.71198   0.15653   1.00000  Uiso   1.00
C039   C     0.35300   0.76450   0.15730   1.00000  Uiso   1.00
C040   C     0.35400   0.87735   0.15707   1.00000  Uiso   1.00
C041   C     0.25389   0.93341   0.15645   1.00000  Uiso   1.00
C042   C     0.45077   0.70414   0.15875   1.00000  Uiso   1.00
C043   C     0.55279   0.75921   0.15850   1.00000  Uiso   1.00
C044   C     0.55275   0.87320   0.15768   1.00000  Uiso   1.00
C045   C     0.45392   0.93254   0.15737   1.00000  Uiso   1.00
C046   C     0.65479   0.70412   0.15761   1.00000  Uiso   1.00
C047   C     0.75250   0.76450   0.15613   1.00000  Uiso   1.00
C048   C     0.75148   0.87734   0.15632   1.00000  Uiso   1.00
C049   C     0.65158   0.93254   0.15693   1.00000  Uiso   1.00
C050   C     0.85366   0.71198   0.15533   1.00000  Uiso   1.00
C051   C     0.95307   0.76771   0.15552   1.00000  Uiso   1.00
C052   C     0.85158   0.93341   0.15586   1.00000  Uiso   1.00
C053   C     0.15301   0.87900   0.15625   1.00000  Uiso   1.00
C054   C     0.95246   0.87900   0.15585   1.00000  Uiso   1.00
N001   N     0.44510   0.38329   0.15765   1.00000  Uiso   1.00
N002   N     0.44539   0.59532   0.16030   1.00000  Uiso   1.00
N003   N     0.66040   0.38329   0.15619   1.00000  Uiso   1.00
N004   N     0.66020   0.59534   0.15863   1.00000  Uiso   1.00
N005   N     0.56602   0.54091   0.30936   1.00000  Uiso   1.00
Fe001  Fe    0.55291   0.48954   0.16718   1.00000  Uiso   1.00
O001   O     0.57173   0.50680   0.36802   1.00000  Uiso   1.00
O002   O     0.56993   0.63516   0.29303   1.00000  Uiso   1.00
O003   O     0.55421   0.46560   0.26205   1.00000  Uiso   1.00
loop_
_geom_bond_atom_site_label_1
_geom_bond_atom_site_label_2
_geom_bond_distance
_geom_bond_site_symmetry_2
_ccdc_geom_bond_type
C001   C002    1.432   .     D
C001   C018    1.432   1_455 S
C001   C037    1.417   1_545 S
C002   C003    1.418   .     S
C002   C005    1.437   .     S
C003   C004    1.427   .     D
C003   C008    1.429   .     S
C004   C019    1.427   1_455 S
C004   C021    1.425   .     S
C005   C006    1.438   .     S
C005   C041    1.425   1_545 D
C006   C007    1.437   .     S
C006   C009    1.431   .     D
C007   C008    1.428   .     S
C007   C012    1.443   .     D
C008   C025    1.417   .     D
C009   C010    1.446   .     S
C009   C045    1.447   1_545 S
C010   C011    1.453   .     D
C010   C013    1.446   .     S
C011   C012    1.455   .     S
C011   C016    1.455   .     S
C012   N001    1.385   .     S
C013   C014    1.431   .     D
C013   C049    1.447   1_545 S
C014   C015    1.437   .     S
C014   C017    1.438   .     S
C015   C016    1.443   .     S
C015   C020    1.428   .     D
C016   N003    1.385   .     D
C017   C018    1.437   .     S
C017   C052    1.425   1_545 D
C018   C001    1.432   1_655 S
C018   C019    1.418   .     D
C019   C004    1.427   1_655 S
C019   C020    1.429   .     S
C020   C031    1.417   .     S
C021   C022    1.417   .     D
C021   C032    1.416   1_455 S
C022   C023    1.415   .     S
C022   C025    1.425   .     S
C023   C024    1.417   .     D
C023   C028    1.426   .     S
C024   C033    1.417   1_455 S
C024   C035    1.425   .     S
C025   C026    1.406   .     S
C026   C027    1.443   .     S
C026   N001    1.368   .     D
C027   C028    1.405   .     S
C027   N002    1.370   .     D
C028   C038    1.417   .     D
C029   C030    1.443   .     S
C029   C031    1.406   .     D
C029   N003    1.367   .     S
C030   C034    1.405   .     S
C030   N004    1.369   .     D
C031   C032    1.425   .     S
C032   C021    1.416   1_655 S
C032   C033    1.415   .     D
C033   C024    1.417   1_655 S
C033   C034    1.425   .     S
C034   C050    1.417   .     D
C035   C036    1.427   .     S
C035   C051    1.427   1_455 D
C036   C038    1.429   .     S
C036   C053    1.417   .     D
C037   C001    1.417   1_565 S
C037   C053    1.432   .     S
C037   C054    1.432   1_455 D
C038   C039    1.428   .     S
C039   C040    1.437   .     S
C039   C042    1.442   .     D
C040   C041    1.439   .     S
C040   C045    1.431   .     D
C041   C005    1.425   1_565 D
C041   C053    1.437   .     S
C042   C043    1.453   .     S
C042   N002    1.388   .     S
C043   C044    1.452   .     S
C043   C046    1.453   .     D
C044   C045    1.446   .     S
C044   C049    1.446   .     D
C045   C009    1.447   1_565 S
C046   C047    1.441   .     S
C046   N004    1.387   .     S
C047   C048    1.437   .     D
C047   C050    1.428   .     S
C048   C049    1.431   .     S
C048   C052    1.438   .     S
C049   C013    1.447   1_565 S
C050   C051    1.429   .     S
C051   C035    1.427   1_655 D
C051   C054    1.417   .     S
C052   C017    1.425   1_565 D
C052   C054    1.437   .     S
C054   C037    1.432   1_655 D
N001   Fe001   1.917   .     S
N002   Fe001   1.906   .     S
N003   Fe001   1.918   .     S
N004   Fe001   1.907   .     S
N005   O001    1.252   .     D
N005   O002    1.245   .     S
N005   O003    1.355   .     S
Fe001  O003    1.921   .     S
