data_e+0.8-opt
_audit_creation_date              2024-12-22
_audit_creation_method            'Materials Studio'
_symmetry_space_group_name_H-M    'P1'
_symmetry_Int_Tables_number       1
_symmetry_cell_setting            triclinic
loop_
_symmetry_equiv_pos_as_xyz
  x,y,z
_cell_length_a                    12.4736
_cell_length_b                    12.7367
_cell_length_c                    19.9881
_cell_angle_alpha                 90.0000
_cell_angle_beta                  90.0000
_cell_angle_gamma                 90.0000
loop_
_atom_site_label
_atom_site_type_symbol
_atom_site_fract_x
_atom_site_fract_y
_atom_site_fract_z
_atom_site_U_iso_or_equiv
_atom_site_adp_type
_atom_site_occupancy
C001   C     0.05273   0.04499   0.15524   1.00000  Uiso   1.00
C002   C     0.15304   0.09974   0.15507   1.00000  Uiso   1.00
C003   C     0.15243   0.21104   0.15420   1.00000  Uiso   1.00
C004   C     0.05273   0.26614   0.15345   1.00000  Uiso   1.00
C005   C     0.25389   0.04530   0.15587   1.00000  Uiso   1.00
C006   C     0.35400   0.10140   0.15603   1.00000  Uiso   1.00
C007   C     0.35292   0.21418   0.15547   1.00000  Uiso   1.00
C008   C     0.25177   0.26680   0.15452   1.00000  Uiso   1.00
C009   C     0.45395   0.04616   0.15689   1.00000  Uiso   1.00
C010   C     0.55274   0.10545   0.15685   1.00000  Uiso   1.00
C011   C     0.55274   0.21959   0.15693   1.00000  Uiso   1.00
C012   C     0.45067   0.27475   0.15662   1.00000  Uiso   1.00
C013   C     0.65153   0.04615   0.15651   1.00000  Uiso   1.00
C014   C     0.75147   0.10140   0.15543   1.00000  Uiso   1.00
C015   C     0.75253   0.21417   0.15458   1.00000  Uiso   1.00
C016   C     0.65479   0.27475   0.15579   1.00000  Uiso   1.00
C017   C     0.85157   0.04530   0.15535   1.00000  Uiso   1.00
C018   C     0.95242   0.09974   0.15474   1.00000  Uiso   1.00
C019   C     0.95303   0.21104   0.15374   1.00000  Uiso   1.00
C020   C     0.85369   0.26680   0.15354   1.00000  Uiso   1.00
C021   C     0.05274   0.37793   0.15303   1.00000  Uiso   1.00
C022   C     0.15096   0.43385   0.15376   1.00000  Uiso   1.00
C023   C     0.15099   0.54495   0.15437   1.00000  Uiso   1.00
C024   C     0.05275   0.60086   0.15417   1.00000  Uiso   1.00
C025   C     0.24997   0.37807   0.15452   1.00000  Uiso   1.00
C026   C     0.34777   0.43287   0.15637   1.00000  Uiso   1.00
C027   C     0.34782   0.54587   0.15746   1.00000  Uiso   1.00
C028   C     0.25004   0.60069   0.15591   1.00000  Uiso   1.00
C029   C     0.75769   0.43288   0.15450   1.00000  Uiso   1.00
C030   C     0.75765   0.54591   0.15546   1.00000  Uiso   1.00
C031   C     0.85550   0.37807   0.15312   1.00000  Uiso   1.00
C032   C     0.95452   0.43385   0.15289   1.00000  Uiso   1.00
C033   C     0.95451   0.54496   0.15346   1.00000  Uiso   1.00
C034   C     0.85546   0.60072   0.15437   1.00000  Uiso   1.00
C035   C     0.05274   0.71262   0.15527   1.00000  Uiso   1.00
C036   C     0.15247   0.76768   0.15609   1.00000  Uiso   1.00
C037   C     0.05273   0.93373   0.15586   1.00000  Uiso   1.00
C038   C     0.25182   0.71195   0.15654   1.00000  Uiso   1.00
C039   C     0.35306   0.76448   0.15729   1.00000  Uiso   1.00
C040   C     0.35405   0.87729   0.15707   1.00000  Uiso   1.00
C041   C     0.25392   0.93339   0.15646   1.00000  Uiso   1.00
C042   C     0.45084   0.70407   0.15869   1.00000  Uiso   1.00
C043   C     0.55278   0.75919   0.15847   1.00000  Uiso   1.00
C044   C     0.55275   0.87324   0.15768   1.00000  Uiso   1.00
C045   C     0.45396   0.93254   0.15737   1.00000  Uiso   1.00
C046   C     0.65472   0.70404   0.15756   1.00000  Uiso   1.00
C047   C     0.75243   0.76448   0.15612   1.00000  Uiso   1.00
C048   C     0.75143   0.87728   0.15631   1.00000  Uiso   1.00
C049   C     0.65153   0.93254   0.15693   1.00000  Uiso   1.00
C050   C     0.85366   0.71195   0.15534   1.00000  Uiso   1.00
C051   C     0.95302   0.76768   0.15552   1.00000  Uiso   1.00
C052   C     0.85155   0.93339   0.15587   1.00000  Uiso   1.00
C053   C     0.15305   0.87898   0.15625   1.00000  Uiso   1.00
C054   C     0.95242   0.87898   0.15585   1.00000  Uiso   1.00
N001   N     0.44531   0.38342   0.15748   1.00000  Uiso   1.00
N002   N     0.44558   0.59519   0.16012   1.00000  Uiso   1.00
N003   N     0.66019   0.38343   0.15603   1.00000  Uiso   1.00
N004   N     0.66000   0.59521   0.15847   1.00000  Uiso   1.00
N005   N     0.56603   0.54086   0.30949   1.00000  Uiso   1.00
Fe001  Fe    0.55291   0.48951   0.16743   1.00000  Uiso   1.00
O001   O     0.57179   0.50699   0.36828   1.00000  Uiso   1.00
O002   O     0.56995   0.63512   0.29311   1.00000  Uiso   1.00
O003   O     0.55420   0.46555   0.26236   1.00000  Uiso   1.00
loop_
_geom_bond_atom_site_label_1
_geom_bond_atom_site_label_2
_geom_bond_distance
_geom_bond_site_symmetry_2
_ccdc_geom_bond_type
C001   C002    1.432   .     D
C001   C018    1.432   1_455 S
C001   C037    1.417   1_545 S
C002   C003    1.418   .     S
C002   C005    1.437   .     S
C003   C004    1.428   .     D
C003   C008    1.428   .     S
C004   C019    1.428   1_455 S
C004   C021    1.424   .     S
C005   C006    1.439   .     S
C005   C041    1.425   1_545 D
C006   C007    1.436   .     S
C006   C009    1.432   .     D
C007   C008    1.429   .     S
C007   C012    1.443   .     D
C008   C025    1.417   .     D
C009   C010    1.445   .     S
C009   C045    1.447   1_545 S
C010   C011    1.454   .     D
C010   C013    1.445   .     S
C011   C012    1.454   .     S
C011   C016    1.454   .     S
C012   N001    1.386   .     S
C013   C014    1.432   .     D
C013   C049    1.447   1_545 S
C014   C015    1.436   .     S
C014   C017    1.439   .     S
C015   C016    1.443   .     S
C015   C020    1.429   .     D
C016   N003    1.386   .     D
C017   C018    1.437   .     S
C017   C052    1.425   1_545 D
C018   C001    1.432   1_655 S
C018   C019    1.418   .     D
C019   C004    1.428   1_655 S
C019   C020    1.428   .     S
C020   C031    1.417   .     S
C021   C022    1.417   .     D
C021   C032    1.417   1_455 S
C022   C023    1.415   .     S
C022   C025    1.425   .     S
C023   C024    1.417   .     D
C023   C028    1.425   .     S
C024   C033    1.417   1_455 S
C024   C035    1.424   .     S
C025   C026    1.406   .     S
C026   C027    1.439   .     S
C026   N001    1.370   .     D
C027   C028    1.406   .     S
C027   N002    1.373   .     D
C028   C038    1.417   .     D
C029   C030    1.440   .     S
C029   C031    1.406   .     D
C029   N003    1.370   .     S
C030   C034    1.406   .     S
C030   N004    1.372   .     D
C031   C032    1.425   .     S
C032   C021    1.417   1_655 S
C032   C033    1.415   .     D
C033   C024    1.417   1_655 S
C033   C034    1.425   .     S
C034   C050    1.417   .     D
C035   C036    1.428   .     S
C035   C051    1.428   1_455 D
C036   C038    1.428   .     S
C036   C053    1.418   .     D
C037   C001    1.417   1_565 S
C037   C053    1.433   .     S
C037   C054    1.433   1_455 D
C038   C039    1.429   .     S
C039   C040    1.437   .     S
C039   C042    1.442   .     D
C040   C041    1.439   .     S
C040   C045    1.431   .     D
C041   C005    1.425   1_565 D
C041   C053    1.436   .     S
C042   C043    1.453   .     S
C042   N002    1.389   .     S
C043   C044    1.453   .     S
C043   C046    1.453   .     D
C044   C045    1.445   .     S
C044   C049    1.445   .     D
C045   C009    1.447   1_565 S
C046   C047    1.442   .     S
C046   N004    1.388   .     S
C047   C048    1.437   .     D
C047   C050    1.429   .     S
C048   C049    1.431   .     S
C048   C052    1.439   .     S
C049   C013    1.447   1_565 S
C050   C051    1.428   .     S
C051   C035    1.428   1_655 D
C051   C054    1.418   .     S
C052   C017    1.425   1_565 D
C052   C054    1.436   .     S
C054   C037    1.433   1_655 D
N001   Fe001   1.915   .     S
N002   Fe001   1.904   .     S
N003   Fe001   1.915   .     S
N004   Fe001   1.905   .     S
N005   O001    1.254   .     D
N005   O002    1.245   .     S
N005   O003    1.352   .     S
Fe001  O003    1.922   .     S
