data_e+0.6-opt
_audit_creation_date              2024-12-22
_audit_creation_method            'Materials Studio'
_symmetry_space_group_name_H-M    'P1'
_symmetry_Int_Tables_number       1
_symmetry_cell_setting            triclinic
loop_
_symmetry_equiv_pos_as_xyz
  x,y,z
_cell_length_a                    12.4736
_cell_length_b                    12.7367
_cell_length_c                    19.9881
_cell_angle_alpha                 90.0000
_cell_angle_beta                  90.0000
_cell_angle_gamma                 90.0000
loop_
_atom_site_label
_atom_site_type_symbol
_atom_site_fract_x
_atom_site_fract_y
_atom_site_fract_z
_atom_site_U_iso_or_equiv
_atom_site_adp_type
_atom_site_occupancy
C001   C     0.05273   0.04499   0.15523   1.00000  Uiso   1.00
C002   C     0.15309   0.09976   0.15506   1.00000  Uiso   1.00
C003   C     0.15247   0.21109   0.15420   1.00000  Uiso   1.00
C004   C     0.05273   0.26618   0.15344   1.00000  Uiso   1.00
C005   C     0.25393   0.04532   0.15587   1.00000  Uiso   1.00
C006   C     0.35406   0.10148   0.15603   1.00000  Uiso   1.00
C007   C     0.35300   0.21422   0.15545   1.00000  Uiso   1.00
C008   C     0.25179   0.26683   0.15452   1.00000  Uiso   1.00
C009   C     0.45401   0.04615   0.15689   1.00000  Uiso   1.00
C010   C     0.55274   0.10541   0.15685   1.00000  Uiso   1.00
C011   C     0.55274   0.21963   0.15690   1.00000  Uiso   1.00
C012   C     0.45077   0.27484   0.15656   1.00000  Uiso   1.00
C013   C     0.65147   0.04615   0.15651   1.00000  Uiso   1.00
C014   C     0.75140   0.10149   0.15543   1.00000  Uiso   1.00
C015   C     0.75246   0.21421   0.15457   1.00000  Uiso   1.00
C016   C     0.65470   0.27485   0.15573   1.00000  Uiso   1.00
C017   C     0.85153   0.04532   0.15535   1.00000  Uiso   1.00
C018   C     0.95237   0.09976   0.15473   1.00000  Uiso   1.00
C019   C     0.95298   0.21108   0.15374   1.00000  Uiso   1.00
C020   C     0.85366   0.26683   0.15354   1.00000  Uiso   1.00
C021   C     0.05273   0.37786   0.15304   1.00000  Uiso   1.00
C022   C     0.15098   0.43383   0.15378   1.00000  Uiso   1.00
C023   C     0.15101   0.54496   0.15440   1.00000  Uiso   1.00
C024   C     0.05275   0.60092   0.15418   1.00000  Uiso   1.00
C025   C     0.24998   0.37812   0.15454   1.00000  Uiso   1.00
C026   C     0.34777   0.43302   0.15629   1.00000  Uiso   1.00
C027   C     0.34780   0.54572   0.15737   1.00000  Uiso   1.00
C028   C     0.25005   0.60064   0.15593   1.00000  Uiso   1.00
C029   C     0.75769   0.43303   0.15442   1.00000  Uiso   1.00
C030   C     0.75767   0.54575   0.15537   1.00000  Uiso   1.00
C031   C     0.85548   0.37812   0.15314   1.00000  Uiso   1.00
C032   C     0.95450   0.43384   0.15291   1.00000  Uiso   1.00
C033   C     0.95449   0.54497   0.15349   1.00000  Uiso   1.00
C034   C     0.85544   0.60066   0.15438   1.00000  Uiso   1.00
C035   C     0.05274   0.71258   0.15527   1.00000  Uiso   1.00
C036   C     0.15251   0.76763   0.15609   1.00000  Uiso   1.00
C037   C     0.05273   0.93373   0.15584   1.00000  Uiso   1.00
C038   C     0.25183   0.71191   0.15654   1.00000  Uiso   1.00
C039   C     0.35314   0.76444   0.15727   1.00000  Uiso   1.00
C040   C     0.35411   0.87721   0.15706   1.00000  Uiso   1.00
C041   C     0.25395   0.93337   0.15646   1.00000  Uiso   1.00
C042   C     0.45093   0.70398   0.15860   1.00000  Uiso   1.00
C043   C     0.55278   0.75914   0.15842   1.00000  Uiso   1.00
C044   C     0.55275   0.87329   0.15768   1.00000  Uiso   1.00
C045   C     0.45403   0.93255   0.15737   1.00000  Uiso   1.00
C046   C     0.65463   0.70395   0.15747   1.00000  Uiso   1.00
C047   C     0.75235   0.76443   0.15609   1.00000  Uiso   1.00
C048   C     0.75137   0.87720   0.15631   1.00000  Uiso   1.00
C049   C     0.65147   0.93255   0.15693   1.00000  Uiso   1.00
C050   C     0.85364   0.71191   0.15534   1.00000  Uiso   1.00
C051   C     0.95297   0.76764   0.15552   1.00000  Uiso   1.00
C052   C     0.85151   0.93337   0.15587   1.00000  Uiso   1.00
C053   C     0.15310   0.87897   0.15624   1.00000  Uiso   1.00
C054   C     0.95237   0.87897   0.15584   1.00000  Uiso   1.00
N001   N     0.44556   0.38360   0.15727   1.00000  Uiso   1.00
N002   N     0.44581   0.59503   0.15988   1.00000  Uiso   1.00
N003   N     0.65993   0.38361   0.15583   1.00000  Uiso   1.00
N004   N     0.65976   0.59504   0.15824   1.00000  Uiso   1.00
N005   N     0.56603   0.54075   0.30968   1.00000  Uiso   1.00
Fe001  Fe    0.55292   0.48947   0.16774   1.00000  Uiso   1.00
O001   O     0.57183   0.50720   0.36868   1.00000  Uiso   1.00
O002   O     0.56996   0.63508   0.29329   1.00000  Uiso   1.00
O003   O     0.55423   0.46550   0.26281   1.00000  Uiso   1.00
loop_
_geom_bond_atom_site_label_1
_geom_bond_atom_site_label_2
_geom_bond_distance
_geom_bond_site_symmetry_2
_ccdc_geom_bond_type
C001   C002    1.433   .     D
C001   C018    1.433   1_455 S
C001   C037    1.417   1_545 S
C002   C003    1.418   .     S
C002   C005    1.436   .     S
C003   C004    1.428   .     D
C003   C008    1.428   .     S
C004   C019    1.429   1_455 S
C004   C021    1.423   .     S
C005   C006    1.439   .     S
C005   C041    1.426   1_545 D
C006   C007    1.436   .     S
C006   C009    1.432   .     D
C007   C008    1.429   .     S
C007   C012    1.444   .     D
C008   C025    1.418   .     D
C009   C010    1.444   .     S
C009   C045    1.447   1_545 S
C010   C011    1.455   .     D
C010   C013    1.444   .     S
C011   C012    1.453   .     S
C011   C016    1.453   .     S
C012   N001    1.387   .     S
C013   C014    1.432   .     D
C013   C049    1.447   1_545 S
C014   C015    1.436   .     S
C014   C017    1.439   .     S
C015   C016    1.444   .     S
C015   C020    1.429   .     D
C016   N003    1.387   .     D
C017   C018    1.436   .     S
C017   C052    1.426   1_545 D
C018   C001    1.433   1_655 S
C018   C019    1.418   .     D
C019   C004    1.429   1_655 S
C019   C020    1.428   .     S
C020   C031    1.418   .     S
C021   C022    1.418   .     D
C021   C032    1.418   1_455 S
C022   C023    1.416   .     S
C022   C025    1.424   .     S
C023   C024    1.418   .     D
C023   C028    1.425   .     S
C024   C033    1.418   1_455 S
C024   C035    1.422   .     S
C025   C026    1.406   .     S
C026   C027    1.436   .     S
C026   N001    1.373   .     D
C027   C028    1.406   .     S
C027   N002    1.375   .     D
C028   C038    1.417   .     D
C029   C030    1.436   .     S
C029   C031    1.406   .     D
C029   N003    1.373   .     S
C030   C034    1.406   .     S
C030   N004    1.374   .     D
C031   C032    1.424   .     S
C032   C021    1.418   1_655 S
C032   C033    1.416   .     D
C033   C024    1.418   1_655 S
C033   C034    1.425   .     S
C034   C050    1.417   .     D
C035   C036    1.429   .     S
C035   C051    1.428   1_455 D
C036   C038    1.428   .     S
C036   C053    1.418   .     D
C037   C001    1.417   1_565 S
C037   C053    1.433   .     S
C037   C054    1.433   1_455 D
C038   C039    1.430   .     S
C039   C040    1.436   .     S
C039   C042    1.443   .     D
C040   C041    1.440   .     S
C040   C045    1.432   .     D
C041   C005    1.426   1_565 D
C041   C053    1.436   .     S
C042   C043    1.452   .     S
C042   N002    1.389   .     S
C043   C044    1.454   .     S
C043   C046    1.452   .     D
C044   C045    1.444   .     S
C044   C049    1.444   .     D
C045   C009    1.447   1_565 S
C046   C047    1.442   .     S
C046   N004    1.389   .     S
C047   C048    1.436   .     D
C047   C050    1.430   .     S
C048   C049    1.432   .     S
C048   C052    1.439   .     S
C049   C013    1.447   1_565 S
C050   C051    1.428   .     S
C051   C035    1.428   1_655 D
C051   C054    1.418   .     S
C052   C017    1.426   1_565 D
C052   C054    1.436   .     S
C054   C037    1.433   1_655 D
N001   Fe001   1.912   .     S
N002   Fe001   1.902   .     S
N003   Fe001   1.912   .     S
N004   Fe001   1.903   .     S
N005   O001    1.257   .     D
N005   O002    1.246   .     S
N005   O003    1.348   .     S
Fe001  O003    1.925   .     S
