data_e-0.2-opt
_audit_creation_date              2024-12-22
_audit_creation_method            'Materials Studio'
_symmetry_space_group_name_H-M    'P1'
_symmetry_Int_Tables_number       1
_symmetry_cell_setting            triclinic
loop_
_symmetry_equiv_pos_as_xyz
  x,y,z
_cell_length_a                    12.4736
_cell_length_b                    12.7367
_cell_length_c                    19.9881
_cell_angle_alpha                 90.0000
_cell_angle_beta                  90.0000
_cell_angle_gamma                 90.0000
loop_
_atom_site_label
_atom_site_type_symbol
_atom_site_fract_x
_atom_site_fract_y
_atom_site_fract_z
_atom_site_U_iso_or_equiv
_atom_site_adp_type
_atom_site_occupancy
C001   C     0.05272   0.04498   0.15526   1.00000  Uiso   1.00
C002   C     0.15312   0.09977   0.15509   1.00000  Uiso   1.00
C003   C     0.15252   0.21112   0.15422   1.00000  Uiso   1.00
C004   C     0.05273   0.26622   0.15346   1.00000  Uiso   1.00
C005   C     0.25395   0.04534   0.15591   1.00000  Uiso   1.00
C006   C     0.35409   0.10153   0.15609   1.00000  Uiso   1.00
C007   C     0.35306   0.21425   0.15552   1.00000  Uiso   1.00
C008   C     0.25177   0.26686   0.15457   1.00000  Uiso   1.00
C009   C     0.45405   0.04617   0.15692   1.00000  Uiso   1.00
C010   C     0.55274   0.10535   0.15689   1.00000  Uiso   1.00
C011   C     0.55274   0.21967   0.15691   1.00000  Uiso   1.00
C012   C     0.45082   0.27488   0.15661   1.00000  Uiso   1.00
C013   C     0.65141   0.04616   0.15654   1.00000  Uiso   1.00
C014   C     0.75137   0.10152   0.15549   1.00000  Uiso   1.00
C015   C     0.75238   0.21423   0.15464   1.00000  Uiso   1.00
C016   C     0.65462   0.27487   0.15575   1.00000  Uiso   1.00
C017   C     0.85150   0.04534   0.15540   1.00000  Uiso   1.00
C018   C     0.95233   0.09977   0.15477   1.00000  Uiso   1.00
C019   C     0.95292   0.21112   0.15376   1.00000  Uiso   1.00
C020   C     0.85367   0.26686   0.15359   1.00000  Uiso   1.00
C021   C     0.05273   0.37782   0.15309   1.00000  Uiso   1.00
C022   C     0.15098   0.43385   0.15383   1.00000  Uiso   1.00
C023   C     0.15102   0.54496   0.15444   1.00000  Uiso   1.00
C024   C     0.05275   0.60098   0.15422   1.00000  Uiso   1.00
C025   C     0.24998   0.37815   0.15460   1.00000  Uiso   1.00
C026   C     0.34771   0.43314   0.15636   1.00000  Uiso   1.00
C027   C     0.34776   0.54555   0.15747   1.00000  Uiso   1.00
C028   C     0.25009   0.60060   0.15602   1.00000  Uiso   1.00
C029   C     0.75773   0.43316   0.15444   1.00000  Uiso   1.00
C030   C     0.75771   0.54562   0.15546   1.00000  Uiso   1.00
C031   C     0.85547   0.37816   0.15320   1.00000  Uiso   1.00
C032   C     0.95450   0.43386   0.15297   1.00000  Uiso   1.00
C033   C     0.95448   0.54497   0.15353   1.00000  Uiso   1.00
C034   C     0.85541   0.60064   0.15445   1.00000  Uiso   1.00
C035   C     0.05275   0.71255   0.15529   1.00000  Uiso   1.00
C036   C     0.15258   0.76760   0.15612   1.00000  Uiso   1.00
C037   C     0.05274   0.93374   0.15588   1.00000  Uiso   1.00
C038   C     0.25183   0.71188   0.15661   1.00000  Uiso   1.00
C039   C     0.35323   0.76439   0.15737   1.00000  Uiso   1.00
C040   C     0.35414   0.87716   0.15713   1.00000  Uiso   1.00
C041   C     0.25399   0.93335   0.15650   1.00000  Uiso   1.00
C042   C     0.45102   0.70393   0.15877   1.00000  Uiso   1.00
C043   C     0.55278   0.75910   0.15857   1.00000  Uiso   1.00
C044   C     0.55275   0.87337   0.15775   1.00000  Uiso   1.00
C045   C     0.45407   0.93255   0.15741   1.00000  Uiso   1.00
C046   C     0.65456   0.70392   0.15768   1.00000  Uiso   1.00
C047   C     0.75228   0.76440   0.15619   1.00000  Uiso   1.00
C048   C     0.75134   0.87716   0.15637   1.00000  Uiso   1.00
C049   C     0.65141   0.93255   0.15697   1.00000  Uiso   1.00
C050   C     0.85366   0.71190   0.15541   1.00000  Uiso   1.00
C051   C     0.95292   0.76761   0.15555   1.00000  Uiso   1.00
C052   C     0.85148   0.93335   0.15591   1.00000  Uiso   1.00
C053   C     0.15314   0.87896   0.15628   1.00000  Uiso   1.00
C054   C     0.95233   0.87896   0.15588   1.00000  Uiso   1.00
N001   N     0.44570   0.38369   0.15709   1.00000  Uiso   1.00
N002   N     0.44606   0.59481   0.15991   1.00000  Uiso   1.00
N003   N     0.65978   0.38369   0.15553   1.00000  Uiso   1.00
N004   N     0.65952   0.59487   0.15836   1.00000  Uiso   1.00
N005   N     0.56636   0.54196   0.30993   1.00000  Uiso   1.00
Fe001  Fe    0.55290   0.48947   0.16826   1.00000  Uiso   1.00
O001   O     0.57210   0.50701   0.36733   1.00000  Uiso   1.00
O002   O     0.57007   0.63526   0.29219   1.00000  Uiso   1.00
O003   O     0.55359   0.46448   0.26176   1.00000  Uiso   1.00
loop_
_geom_bond_atom_site_label_1
_geom_bond_atom_site_label_2
_geom_bond_distance
_geom_bond_site_symmetry_2
_ccdc_geom_bond_type
C001   C002    1.434   .     D
C001   C018    1.434   1_455 S
C001   C037    1.417   1_545 S
C002   C003    1.418   .     S
C002   C005    1.436   .     S
C003   C004    1.429   .     D
C003   C008    1.427   .     S
C004   C019    1.429   1_455 S
C004   C021    1.421   .     S
C005   C006    1.440   .     S
C005   C041    1.426   1_545 D
C006   C007    1.436   .     S
C006   C009    1.433   .     D
C007   C008    1.430   .     S
C007   C012    1.444   .     D
C008   C025    1.418   .     D
C009   C010    1.443   .     S
C009   C045    1.447   1_545 S
C010   C011    1.456   .     D
C010   C013    1.443   .     S
C011   C012    1.453   .     S
C011   C016    1.453   .     S
C012   N001    1.387   .     S
C013   C014    1.433   .     D
C013   C049    1.447   1_545 S
C014   C015    1.436   .     S
C014   C017    1.439   .     S
C015   C016    1.444   .     S
C015   C020    1.430   .     D
C016   N003    1.388   .     D
C017   C018    1.436   .     S
C017   C052    1.426   1_545 D
C018   C001    1.434   1_655 S
C018   C019    1.418   .     D
C019   C004    1.429   1_655 S
C019   C020    1.427   .     S
C020   C031    1.418   .     S
C021   C022    1.418   .     D
C021   C032    1.418   1_455 S
C022   C023    1.415   .     S
C022   C025    1.424   .     S
C023   C024    1.418   .     D
C023   C028    1.425   .     S
C024   C033    1.418   1_455 S
C024   C035    1.421   .     S
C025   C026    1.406   .     S
C026   C027    1.432   .     S
C026   N001    1.375   .     D
C027   C028    1.406   .     S
C027   N002    1.378   .     D
C028   C038    1.418   .     D
C029   C030    1.432   .     S
C029   C031    1.406   .     D
C029   N003    1.375   .     S
C030   C034    1.406   .     S
C030   N004    1.377   .     D
C031   C032    1.424   .     S
C032   C021    1.418   1_655 S
C032   C033    1.415   .     D
C033   C024    1.418   1_655 S
C033   C034    1.425   .     S
C034   C050    1.417   .     D
C035   C036    1.429   .     S
C035   C051    1.429   1_455 D
C036   C038    1.427   .     S
C036   C053    1.418   .     D
C037   C001    1.417   1_565 S
C037   C053    1.434   .     S
C037   C054    1.434   1_455 D
C038   C039    1.431   .     S
C039   C040    1.436   .     S
C039   C042    1.443   .     D
C040   C041    1.440   .     S
C040   C045    1.432   .     D
C041   C005    1.426   1_565 D
C041   C053    1.436   .     S
C042   C043    1.451   .     S
C042   N002    1.391   .     S
C043   C044    1.455   .     S
C043   C046    1.451   .     D
C044   C045    1.443   .     S
C044   C049    1.443   .     D
C045   C009    1.447   1_565 S
C046   C047    1.442   .     S
C046   N004    1.390   .     S
C047   C048    1.436   .     D
C047   C050    1.431   .     S
C048   C049    1.432   .     S
C048   C052    1.440   .     S
C049   C013    1.447   1_565 S
C050   C051    1.427   .     S
C051   C035    1.429   1_655 D
C051   C054    1.418   .     S
C052   C017    1.426   1_565 D
C052   C054    1.436   .     S
C054   C037    1.434   1_655 D
N001   Fe001   1.911   .     S
N002   Fe001   1.898   .     S
N003   Fe001   1.912   .     S
N004   Fe001   1.900   .     S
N005   O001    1.233   .     D
N005   O002    1.241   .     S
N005   O003    1.388   .     S
Fe001  O003    1.896   .     S
