data_e+0.4-opt
_audit_creation_date              2024-12-22
_audit_creation_method            'Materials Studio'
_symmetry_space_group_name_H-M    'P1'
_symmetry_Int_Tables_number       1
_symmetry_cell_setting            triclinic
loop_
_symmetry_equiv_pos_as_xyz
  x,y,z
_cell_length_a                    12.4736
_cell_length_b                    12.7367
_cell_length_c                    19.9881
_cell_angle_alpha                 90.0000
_cell_angle_beta                  90.0000
_cell_angle_gamma                 90.0000
loop_
_atom_site_label
_atom_site_type_symbol
_atom_site_fract_x
_atom_site_fract_y
_atom_site_fract_z
_atom_site_U_iso_or_equiv
_atom_site_adp_type
_atom_site_occupancy
C001   C     0.05273   0.04499   0.15525   1.00000  Uiso   1.00
C002   C     0.15309   0.09976   0.15508   1.00000  Uiso   1.00
C003   C     0.15249   0.21110   0.15421   1.00000  Uiso   1.00
C004   C     0.05273   0.26619   0.15345   1.00000  Uiso   1.00
C005   C     0.25394   0.04533   0.15589   1.00000  Uiso   1.00
C006   C     0.35406   0.10149   0.15606   1.00000  Uiso   1.00
C007   C     0.35301   0.21423   0.15548   1.00000  Uiso   1.00
C008   C     0.25178   0.26684   0.15454   1.00000  Uiso   1.00
C009   C     0.45402   0.04616   0.15691   1.00000  Uiso   1.00
C010   C     0.55274   0.10539   0.15687   1.00000  Uiso   1.00
C011   C     0.55274   0.21964   0.15691   1.00000  Uiso   1.00
C012   C     0.45077   0.27485   0.15658   1.00000  Uiso   1.00
C013   C     0.65145   0.04616   0.15652   1.00000  Uiso   1.00
C014   C     0.75140   0.10149   0.15545   1.00000  Uiso   1.00
C015   C     0.75243   0.21423   0.15460   1.00000  Uiso   1.00
C016   C     0.65468   0.27485   0.15574   1.00000  Uiso   1.00
C017   C     0.85152   0.04532   0.15537   1.00000  Uiso   1.00
C018   C     0.95236   0.09976   0.15475   1.00000  Uiso   1.00
C019   C     0.95296   0.21109   0.15375   1.00000  Uiso   1.00
C020   C     0.85367   0.26684   0.15356   1.00000  Uiso   1.00
C021   C     0.05273   0.37785   0.15306   1.00000  Uiso   1.00
C022   C     0.15097   0.43384   0.15381   1.00000  Uiso   1.00
C023   C     0.15100   0.54496   0.15442   1.00000  Uiso   1.00
C024   C     0.05275   0.60094   0.15420   1.00000  Uiso   1.00
C025   C     0.24998   0.37812   0.15457   1.00000  Uiso   1.00
C026   C     0.34773   0.43306   0.15632   1.00000  Uiso   1.00
C027   C     0.34778   0.54568   0.15742   1.00000  Uiso   1.00
C028   C     0.25006   0.60064   0.15597   1.00000  Uiso   1.00
C029   C     0.75772   0.43307   0.15443   1.00000  Uiso   1.00
C030   C     0.75769   0.54572   0.15542   1.00000  Uiso   1.00
C031   C     0.85547   0.37813   0.15316   1.00000  Uiso   1.00
C032   C     0.95450   0.43385   0.15294   1.00000  Uiso   1.00
C033   C     0.95449   0.54497   0.15351   1.00000  Uiso   1.00
C034   C     0.85543   0.60066   0.15442   1.00000  Uiso   1.00
C035   C     0.05274   0.71257   0.15528   1.00000  Uiso   1.00
C036   C     0.15254   0.76762   0.15611   1.00000  Uiso   1.00
C037   C     0.05273   0.93374   0.15586   1.00000  Uiso   1.00
C038   C     0.25183   0.71191   0.15658   1.00000  Uiso   1.00
C039   C     0.35316   0.76443   0.15731   1.00000  Uiso   1.00
C040   C     0.35411   0.87720   0.15709   1.00000  Uiso   1.00
C041   C     0.25396   0.93337   0.15648   1.00000  Uiso   1.00
C042   C     0.45094   0.70397   0.15868   1.00000  Uiso   1.00
C043   C     0.55278   0.75913   0.15849   1.00000  Uiso   1.00
C044   C     0.55275   0.87331   0.15772   1.00000  Uiso   1.00
C045   C     0.45404   0.93254   0.15739   1.00000  Uiso   1.00
C046   C     0.65462   0.70395   0.15756   1.00000  Uiso   1.00
C047   C     0.75233   0.76442   0.15614   1.00000  Uiso   1.00
C048   C     0.75137   0.87720   0.15634   1.00000  Uiso   1.00
C049   C     0.65145   0.93254   0.15695   1.00000  Uiso   1.00
C050   C     0.85365   0.71191   0.15538   1.00000  Uiso   1.00
C051   C     0.95295   0.76763   0.15553   1.00000  Uiso   1.00
C052   C     0.85150   0.93337   0.15589   1.00000  Uiso   1.00
C053   C     0.15311   0.87897   0.15626   1.00000  Uiso   1.00
C054   C     0.95236   0.87897   0.15586   1.00000  Uiso   1.00
N001   N     0.44559   0.38363   0.15721   1.00000  Uiso   1.00
N002   N     0.44587   0.59497   0.15991   1.00000  Uiso   1.00
N003   N     0.65989   0.38364   0.15576   1.00000  Uiso   1.00
N004   N     0.65970   0.59500   0.15829   1.00000  Uiso   1.00
N005   N     0.56612   0.54101   0.30959   1.00000  Uiso   1.00
Fe001  Fe    0.55291   0.48949   0.16777   1.00000  Uiso   1.00
O001   O     0.57200   0.50720   0.36817   1.00000  Uiso   1.00
O002   O     0.57002   0.63507   0.29281   1.00000  Uiso   1.00
O003   O     0.55399   0.46519   0.26246   1.00000  Uiso   1.00
loop_
_geom_bond_atom_site_label_1
_geom_bond_atom_site_label_2
_geom_bond_distance
_geom_bond_site_symmetry_2
_ccdc_geom_bond_type
C001   C002    1.433   .     D
C001   C018    1.433   1_455 S
C001   C037    1.417   1_545 S
C002   C003    1.418   .     S
C002   C005    1.436   .     S
C003   C004    1.429   .     D
C003   C008    1.428   .     S
C004   C019    1.429   1_455 S
C004   C021    1.422   .     S
C005   C006    1.439   .     S
C005   C041    1.426   1_545 D
C006   C007    1.436   .     S
C006   C009    1.432   .     D
C007   C008    1.430   .     S
C007   C012    1.443   .     D
C008   C025    1.418   .     D
C009   C010    1.444   .     S
C009   C045    1.447   1_545 S
C010   C011    1.455   .     D
C010   C013    1.444   .     S
C011   C012    1.453   .     S
C011   C016    1.453   .     S
C012   N001    1.387   .     S
C013   C014    1.432   .     D
C013   C049    1.447   1_545 S
C014   C015    1.436   .     S
C014   C017    1.439   .     S
C015   C016    1.443   .     S
C015   C020    1.430   .     D
C016   N003    1.387   .     D
C017   C018    1.436   .     S
C017   C052    1.426   1_545 D
C018   C001    1.433   1_655 S
C018   C019    1.418   .     D
C019   C004    1.429   1_655 S
C019   C020    1.428   .     S
C020   C031    1.418   .     S
C021   C022    1.418   .     D
C021   C032    1.418   1_455 S
C022   C023    1.415   .     S
C022   C025    1.424   .     S
C023   C024    1.418   .     D
C023   C028    1.425   .     S
C024   C033    1.418   1_455 S
C024   C035    1.422   .     S
C025   C026    1.406   .     S
C026   C027    1.435   .     S
C026   N001    1.374   .     D
C027   C028    1.406   .     S
C027   N002    1.376   .     D
C028   C038    1.417   .     D
C029   C030    1.435   .     S
C029   C031    1.406   .     D
C029   N003    1.373   .     S
C030   C034    1.406   .     S
C030   N004    1.375   .     D
C031   C032    1.425   .     S
C032   C021    1.418   1_655 S
C032   C033    1.415   .     D
C033   C024    1.418   1_655 S
C033   C034    1.425   .     S
C034   C050    1.417   .     D
C035   C036    1.429   .     S
C035   C051    1.429   1_455 D
C036   C038    1.427   .     S
C036   C053    1.418   .     D
C037   C001    1.417   1_565 S
C037   C053    1.433   .     S
C037   C054    1.433   1_455 D
C038   C039    1.430   .     S
C039   C040    1.436   .     S
C039   C042    1.443   .     D
C040   C041    1.440   .     S
C040   C045    1.432   .     D
C041   C005    1.426   1_565 D
C041   C053    1.436   .     S
C042   C043    1.452   .     S
C042   N002    1.390   .     S
C043   C044    1.454   .     S
C043   C046    1.452   .     D
C044   C045    1.444   .     S
C044   C049    1.444   .     D
C045   C009    1.447   1_565 S
C046   C047    1.442   .     S
C046   N004    1.389   .     S
C047   C048    1.436   .     D
C047   C050    1.430   .     S
C048   C049    1.432   .     S
C048   C052    1.439   .     S
C049   C013    1.447   1_565 S
C050   C051    1.427   .     S
C051   C035    1.429   1_655 D
C051   C054    1.418   .     S
C052   C017    1.426   1_565 D
C052   C054    1.436   .     S
C054   C037    1.433   1_655 D
N001   Fe001   1.912   .     S
N002   Fe001   1.901   .     S
N003   Fe001   1.912   .     S
N004   Fe001   1.902   .     S
N005   O001    1.250   .     D
N005   O002    1.245   .     S
N005   O003    1.358   .     S
Fe001  O003    1.918   .     S
