data_e-1-opt
_audit_creation_date              2024-12-22
_audit_creation_method            'Materials Studio'
_symmetry_space_group_name_H-M    'P1'
_symmetry_Int_Tables_number       1
_symmetry_cell_setting            triclinic
loop_
_symmetry_equiv_pos_as_xyz
  x,y,z
_cell_length_a                    12.4736
_cell_length_b                    12.7367
_cell_length_c                    19.9881
_cell_angle_alpha                 90.0000
_cell_angle_beta                  90.0000
_cell_angle_gamma                 90.0000
loop_
_atom_site_label
_atom_site_type_symbol
_atom_site_fract_x
_atom_site_fract_y
_atom_site_fract_z
_atom_site_U_iso_or_equiv
_atom_site_adp_type
_atom_site_occupancy
C001   C     0.05277   0.04483   0.15520   1.00000  Uiso   1.00
C002   C     0.15310   0.09962   0.15506   1.00000  Uiso   1.00
C003   C     0.15247   0.21094   0.15424   1.00000  Uiso   1.00
C004   C     0.05275   0.26609   0.15351   1.00000  Uiso   1.00
C005   C     0.25393   0.04514   0.15586   1.00000  Uiso   1.00
C006   C     0.35405   0.10128   0.15606   1.00000  Uiso   1.00
C007   C     0.35296   0.21397   0.15552   1.00000  Uiso   1.00
C008   C     0.25178   0.26668   0.15462   1.00000  Uiso   1.00
C009   C     0.45402   0.04602   0.15687   1.00000  Uiso   1.00
C010   C     0.55278   0.10515   0.15679   1.00000  Uiso   1.00
C011   C     0.55276   0.21935   0.15662   1.00000  Uiso   1.00
C012   C     0.45076   0.27450   0.15644   1.00000  Uiso   1.00
C013   C     0.65151   0.04600   0.15649   1.00000  Uiso   1.00
C014   C     0.75148   0.10126   0.15547   1.00000  Uiso   1.00
C015   C     0.75253   0.21394   0.15461   1.00000  Uiso   1.00
C016   C     0.65470   0.27446   0.15542   1.00000  Uiso   1.00
C017   C     0.85161   0.04516   0.15535   1.00000  Uiso   1.00
C018   C     0.95242   0.09962   0.15474   1.00000  Uiso   1.00
C019   C     0.95300   0.21094   0.15378   1.00000  Uiso   1.00
C020   C     0.85370   0.26670   0.15362   1.00000  Uiso   1.00
C021   C     0.05276   0.37775   0.15315   1.00000  Uiso   1.00
C022   C     0.15101   0.43371   0.15385   1.00000  Uiso   1.00
C023   C     0.15110   0.54482   0.15442   1.00000  Uiso   1.00
C024   C     0.05283   0.60080   0.15415   1.00000  Uiso   1.00
C025   C     0.24997   0.37794   0.15461   1.00000  Uiso   1.00
C026   C     0.34781   0.43277   0.15634   1.00000  Uiso   1.00
C027   C     0.34796   0.54544   0.15753   1.00000  Uiso   1.00
C028   C     0.25021   0.60045   0.15605   1.00000  Uiso   1.00
C029   C     0.75767   0.43288   0.15430   1.00000  Uiso   1.00
C030   C     0.75760   0.54564   0.15573   1.00000  Uiso   1.00
C031   C     0.85552   0.37801   0.15322   1.00000  Uiso   1.00
C032   C     0.95454   0.43376   0.15303   1.00000  Uiso   1.00
C033   C     0.95452   0.54486   0.15351   1.00000  Uiso   1.00
C034   C     0.85546   0.60055   0.15454   1.00000  Uiso   1.00
C035   C     0.05284   0.71243   0.15518   1.00000  Uiso   1.00
C036   C     0.15263   0.76746   0.15603   1.00000  Uiso   1.00
C037   C     0.05281   0.93359   0.15577   1.00000  Uiso   1.00
C038   C     0.25192   0.71173   0.15663   1.00000  Uiso   1.00
C039   C     0.35326   0.76430   0.15746   1.00000  Uiso   1.00
C040   C     0.35417   0.87708   0.15713   1.00000  Uiso   1.00
C041   C     0.25399   0.93322   0.15642   1.00000  Uiso   1.00
C042   C     0.45112   0.70395   0.15893   1.00000  Uiso   1.00
C043   C     0.55283   0.75915   0.15877   1.00000  Uiso   1.00
C044   C     0.55280   0.87331   0.15780   1.00000  Uiso   1.00
C045   C     0.45406   0.93242   0.15739   1.00000  Uiso   1.00
C046   C     0.65470   0.70397   0.15814   1.00000  Uiso   1.00
C047   C     0.75246   0.76438   0.15639   1.00000  Uiso   1.00
C048   C     0.75146   0.87712   0.15638   1.00000  Uiso   1.00
C049   C     0.65153   0.93243   0.15697   1.00000  Uiso   1.00
C050   C     0.85375   0.71179   0.15552   1.00000  Uiso   1.00
C051   C     0.95306   0.76750   0.15548   1.00000  Uiso   1.00
C052   C     0.85161   0.93323   0.15584   1.00000  Uiso   1.00
C053   C     0.15317   0.87881   0.15618   1.00000  Uiso   1.00
C054   C     0.95245   0.87882   0.15579   1.00000  Uiso   1.00
N001   N     0.44535   0.38303   0.15678   1.00000  Uiso   1.00
N002   N     0.44603   0.59485   0.15993   1.00000  Uiso   1.00
N003   N     0.66019   0.38303   0.15479   1.00000  Uiso   1.00
N004   N     0.65977   0.59512   0.15914   1.00000  Uiso   1.00
N005   N     0.56644   0.54692   0.31177   1.00000  Uiso   1.00
Fe001  Fe    0.55280   0.48917   0.16960   1.00000  Uiso   1.00
O001   O     0.57224   0.50811   0.36680   1.00000  Uiso   1.00
O002   O     0.56974   0.63824   0.29241   1.00000  Uiso   1.00
O003   O     0.55067   0.46494   0.25945   1.00000  Uiso   1.00
loop_
_geom_bond_atom_site_label_1
_geom_bond_atom_site_label_2
_geom_bond_distance
_geom_bond_site_symmetry_2
_ccdc_geom_bond_type
C001   C002    1.433   .     D
C001   C018    1.433   1_455 S
C001   C037    1.417   1_545 S
C002   C003    1.418   .     S
C002   C005    1.436   .     S
C003   C004    1.429   .     D
C003   C008    1.428   .     S
C004   C019    1.429   1_455 S
C004   C021    1.422   .     S
C005   C006    1.439   .     S
C005   C041    1.426   1_545 D
C006   C007    1.435   .     S
C006   C009    1.432   .     D
C007   C008    1.430   .     S
C007   C012    1.443   .     D
C008   C025    1.417   .     D
C009   C010    1.444   .     S
C009   C045    1.447   1_545 S
C010   C011    1.455   .     D
C010   C013    1.444   .     S
C011   C012    1.453   .     S
C011   C016    1.453   .     S
C012   N001    1.384   .     S
C013   C014    1.432   .     D
C013   C049    1.447   1_545 S
C014   C015    1.435   .     S
C014   C017    1.439   .     S
C015   C016    1.443   .     S
C015   C020    1.430   .     D
C016   N003    1.385   .     D
C017   C018    1.436   .     S
C017   C052    1.426   1_545 D
C018   C001    1.433   1_655 S
C018   C019    1.418   .     D
C019   C004    1.429   1_655 S
C019   C020    1.428   .     S
C020   C031    1.418   .     S
C021   C022    1.418   .     D
C021   C032    1.418   1_455 S
C022   C023    1.415   .     S
C022   C025    1.424   .     S
C023   C024    1.418   .     D
C023   C028    1.425   .     S
C024   C033    1.418   1_455 S
C024   C035    1.422   .     S
C025   C026    1.406   .     S
C026   C027    1.435   .     S
C026   N001    1.372   .     D
C027   C028    1.407   .     S
C027   N002    1.376   .     D
C028   C038    1.418   .     D
C029   C030    1.437   .     S
C029   C031    1.407   .     D
C029   N003    1.372   .     S
C030   C034    1.407   .     S
C030   N004    1.375   .     D
C031   C032    1.425   .     S
C032   C021    1.418   1_655 S
C032   C033    1.415   .     D
C033   C024    1.418   1_655 S
C033   C034    1.425   .     S
C034   C050    1.417   .     D
C035   C036    1.429   .     S
C035   C051    1.429   1_455 D
C036   C038    1.428   .     S
C036   C053    1.418   .     D
C037   C001    1.417   1_565 S
C037   C053    1.433   .     S
C037   C054    1.433   1_455 D
C038   C039    1.430   .     S
C039   C040    1.437   .     S
C039   C042    1.443   .     D
C040   C041    1.440   .     S
C040   C045    1.432   .     D
C041   C005    1.426   1_565 D
C041   C053    1.436   .     S
C042   C043    1.450   .     S
C042   N002    1.391   .     S
C043   C044    1.454   .     S
C043   C046    1.452   .     D
C044   C045    1.444   .     S
C044   C049    1.444   .     D
C045   C009    1.447   1_565 S
C046   C047    1.442   .     S
C046   N004    1.388   .     S
C047   C048    1.436   .     D
C047   C050    1.430   .     S
C048   C049    1.432   .     S
C048   C052    1.439   .     S
C049   C013    1.447   1_565 S
C050   C051    1.428   .     S
C051   C035    1.429   1_655 D
C051   C054    1.418   .     S
C052   C017    1.426   1_565 D
C052   C054    1.436   .     S
C054   C037    1.433   1_655 D
N001   Fe001   1.921   .     S
N002   Fe001   1.903   .     S
N003   Fe001   1.926   .     S
N004   Fe001   1.909   .     S
N005   O001    1.208   .     D
N005   O002    1.227   .     S
N005   O003    1.491   .     S
Fe001  O003    1.822   .     S
