data_e-0.6-opt
_audit_creation_date              2024-12-22
_audit_creation_method            'Materials Studio'
_symmetry_space_group_name_H-M    'P1'
_symmetry_Int_Tables_number       1
_symmetry_cell_setting            triclinic
loop_
_symmetry_equiv_pos_as_xyz
  x,y,z
_cell_length_a                    12.4736
_cell_length_b                    12.7367
_cell_length_c                    19.9881
_cell_angle_alpha                 90.0000
_cell_angle_beta                  90.0000
_cell_angle_gamma                 90.0000
loop_
_atom_site_label
_atom_site_type_symbol
_atom_site_fract_x
_atom_site_fract_y
_atom_site_fract_z
_atom_site_U_iso_or_equiv
_atom_site_adp_type
_atom_site_occupancy
C001   C     0.05273   0.04498   0.15527   1.00000  Uiso   1.00
C002   C     0.15313   0.09977   0.15510   1.00000  Uiso   1.00
C003   C     0.15255   0.21114   0.15422   1.00000  Uiso   1.00
C004   C     0.05273   0.26624   0.15345   1.00000  Uiso   1.00
C005   C     0.25398   0.04535   0.15592   1.00000  Uiso   1.00
C006   C     0.35410   0.10153   0.15610   1.00000  Uiso   1.00
C007   C     0.35309   0.21427   0.15554   1.00000  Uiso   1.00
C008   C     0.25176   0.26687   0.15458   1.00000  Uiso   1.00
C009   C     0.45409   0.04618   0.15692   1.00000  Uiso   1.00
C010   C     0.55274   0.10528   0.15690   1.00000  Uiso   1.00
C011   C     0.55274   0.21967   0.15689   1.00000  Uiso   1.00
C012   C     0.45086   0.27489   0.15661   1.00000  Uiso   1.00
C013   C     0.65137   0.04617   0.15654   1.00000  Uiso   1.00
C014   C     0.75135   0.10152   0.15550   1.00000  Uiso   1.00
C015   C     0.75234   0.21424   0.15467   1.00000  Uiso   1.00
C016   C     0.65458   0.27486   0.15573   1.00000  Uiso   1.00
C017   C     0.85147   0.04534   0.15540   1.00000  Uiso   1.00
C018   C     0.95232   0.09977   0.15477   1.00000  Uiso   1.00
C019   C     0.95288   0.21114   0.15376   1.00000  Uiso   1.00
C020   C     0.85368   0.26687   0.15361   1.00000  Uiso   1.00
C021   C     0.05273   0.37778   0.15309   1.00000  Uiso   1.00
C022   C     0.15098   0.43386   0.15383   1.00000  Uiso   1.00
C023   C     0.15103   0.54494   0.15445   1.00000  Uiso   1.00
C024   C     0.05276   0.60101   0.15422   1.00000  Uiso   1.00
C025   C     0.25000   0.37815   0.15462   1.00000  Uiso   1.00
C026   C     0.34769   0.43317   0.15637   1.00000  Uiso   1.00
C027   C     0.34779   0.54545   0.15748   1.00000  Uiso   1.00
C028   C     0.25012   0.60057   0.15605   1.00000  Uiso   1.00
C029   C     0.75775   0.43321   0.15441   1.00000  Uiso   1.00
C030   C     0.75767   0.54554   0.15547   1.00000  Uiso   1.00
C031   C     0.85545   0.37817   0.15323   1.00000  Uiso   1.00
C032   C     0.95451   0.43387   0.15298   1.00000  Uiso   1.00
C033   C     0.95448   0.54496   0.15354   1.00000  Uiso   1.00
C034   C     0.85541   0.60062   0.15447   1.00000  Uiso   1.00
C035   C     0.05275   0.71253   0.15527   1.00000  Uiso   1.00
C036   C     0.15263   0.76756   0.15612   1.00000  Uiso   1.00
C037   C     0.05274   0.93373   0.15588   1.00000  Uiso   1.00
C038   C     0.25184   0.71186   0.15663   1.00000  Uiso   1.00
C039   C     0.35328   0.76436   0.15739   1.00000  Uiso   1.00
C040   C     0.35417   0.87715   0.15714   1.00000  Uiso   1.00
C041   C     0.25401   0.93333   0.15650   1.00000  Uiso   1.00
C042   C     0.45110   0.70390   0.15880   1.00000  Uiso   1.00
C043   C     0.55278   0.75910   0.15859   1.00000  Uiso   1.00
C044   C     0.55274   0.87343   0.15777   1.00000  Uiso   1.00
C045   C     0.45410   0.93254   0.15741   1.00000  Uiso   1.00
C046   C     0.65451   0.70388   0.15772   1.00000  Uiso   1.00
C047   C     0.75225   0.76437   0.15621   1.00000  Uiso   1.00
C048   C     0.75131   0.87715   0.15637   1.00000  Uiso   1.00
C049   C     0.65138   0.93253   0.15697   1.00000  Uiso   1.00
C050   C     0.85366   0.71187   0.15543   1.00000  Uiso   1.00
C051   C     0.95290   0.76757   0.15555   1.00000  Uiso   1.00
C052   C     0.85146   0.93332   0.15591   1.00000  Uiso   1.00
C053   C     0.15316   0.87895   0.15628   1.00000  Uiso   1.00
C054   C     0.95232   0.87895   0.15588   1.00000  Uiso   1.00
N001   N     0.44579   0.38369   0.15695   1.00000  Uiso   1.00
N002   N     0.44620   0.59472   0.15982   1.00000  Uiso   1.00
N003   N     0.65972   0.38367   0.15528   1.00000  Uiso   1.00
N004   N     0.65941   0.59481   0.15838   1.00000  Uiso   1.00
N005   N     0.56652   0.54298   0.31049   1.00000  Uiso   1.00
Fe001  Fe    0.55291   0.48938   0.16887   1.00000  Uiso   1.00
O001   O     0.57208   0.50687   0.36703   1.00000  Uiso   1.00
O002   O     0.57005   0.63558   0.29200   1.00000  Uiso   1.00
O003   O     0.55327   0.46399   0.26120   1.00000  Uiso   1.00
loop_
_geom_bond_atom_site_label_1
_geom_bond_atom_site_label_2
_geom_bond_distance
_geom_bond_site_symmetry_2
_ccdc_geom_bond_type
C001   C002    1.434   .     D
C001   C018    1.434   1_455 S
C001   C037    1.417   1_545 S
C002   C003    1.419   .     S
C002   C005    1.436   .     S
C003   C004    1.429   .     D
C003   C008    1.427   .     S
C004   C019    1.430   1_455 S
C004   C021    1.421   .     S
C005   C006    1.439   .     S
C005   C041    1.427   1_545 D
C006   C007    1.436   .     S
C006   C009    1.433   .     D
C007   C008    1.431   .     S
C007   C012    1.444   .     D
C008   C025    1.418   .     D
C009   C010    1.442   .     S
C009   C045    1.448   1_545 S
C010   C011    1.457   .     D
C010   C013    1.442   .     S
C011   C012    1.452   .     S
C011   C016    1.452   .     S
C012   N001    1.387   .     S
C013   C014    1.433   .     D
C013   C049    1.447   1_545 S
C014   C015    1.436   .     S
C014   C017    1.439   .     S
C015   C016    1.444   .     S
C015   C020    1.431   .     D
C016   N003    1.387   .     D
C017   C018    1.436   .     S
C017   C052    1.427   1_545 D
C018   C001    1.434   1_655 S
C018   C019    1.419   .     D
C019   C004    1.430   1_655 S
C019   C020    1.427   .     S
C020   C031    1.418   .     S
C021   C022    1.418   .     D
C021   C032    1.418   1_455 S
C022   C023    1.415   .     S
C022   C025    1.425   .     S
C023   C024    1.419   .     D
C023   C028    1.425   .     S
C024   C033    1.419   1_455 S
C024   C035    1.421   .     S
C025   C026    1.406   .     S
C026   C027    1.430   .     S
C026   N001    1.376   .     D
C027   C028    1.406   .     S
C027   N002    1.379   .     D
C028   C038    1.418   .     D
C029   C030    1.431   .     S
C029   C031    1.406   .     D
C029   N003    1.376   .     S
C030   C034    1.407   .     S
C030   N004    1.378   .     D
C031   C032    1.425   .     S
C032   C021    1.418   1_655 S
C032   C033    1.415   .     D
C033   C024    1.419   1_655 S
C033   C034    1.425   .     S
C034   C050    1.417   .     D
C035   C036    1.430   .     S
C035   C051    1.429   1_455 D
C036   C038    1.427   .     S
C036   C053    1.419   .     D
C037   C001    1.417   1_565 S
C037   C053    1.434   .     S
C037   C054    1.434   1_455 D
C038   C039    1.431   .     S
C039   C040    1.437   .     S
C039   C042    1.443   .     D
C040   C041    1.440   .     S
C040   C045    1.432   .     D
C041   C005    1.427   1_565 D
C041   C053    1.436   .     S
C042   C043    1.450   .     S
C042   N002    1.392   .     S
C043   C044    1.456   .     S
C043   C046    1.451   .     D
C044   C045    1.442   .     S
C044   C049    1.442   .     D
C045   C009    1.448   1_565 S
C046   C047    1.443   .     S
C046   N004    1.391   .     S
C047   C048    1.436   .     D
C047   C050    1.431   .     S
C048   C049    1.432   .     S
C048   C052    1.440   .     S
C049   C013    1.447   1_565 S
C050   C051    1.427   .     S
C051   C035    1.429   1_655 D
C051   C054    1.419   .     S
C052   C017    1.427   1_565 D
C052   C054    1.436   .     S
C054   C037    1.434   1_655 D
N001   Fe001   1.912   .     S
N002   Fe001   1.899   .     S
N003   Fe001   1.913   .     S
N004   Fe001   1.901   .     S
N005   O001    1.222   .     D
N005   O002    1.237   .     S
N005   O003    1.418   .     S
Fe001  O003    1.874   .     S
