data_e-0.8-opt
_audit_creation_date              2024-12-22
_audit_creation_method            'Materials Studio'
_symmetry_space_group_name_H-M    'P1'
_symmetry_Int_Tables_number       1
_symmetry_cell_setting            triclinic
loop_
_symmetry_equiv_pos_as_xyz
  x,y,z
_cell_length_a                    12.4736
_cell_length_b                    12.7367
_cell_length_c                    19.9881
_cell_angle_alpha                 90.0000
_cell_angle_beta                  90.0000
_cell_angle_gamma                 90.0000
loop_
_atom_site_label
_atom_site_type_symbol
_atom_site_fract_x
_atom_site_fract_y
_atom_site_fract_z
_atom_site_U_iso_or_equiv
_atom_site_adp_type
_atom_site_occupancy
C001   C     0.05274   0.04497   0.15526   1.00000  Uiso   1.00
C002   C     0.15311   0.09973   0.15510   1.00000  Uiso   1.00
C003   C     0.15249   0.21109   0.15424   1.00000  Uiso   1.00
C004   C     0.05273   0.26620   0.15348   1.00000  Uiso   1.00
C005   C     0.25394   0.04529   0.15591   1.00000  Uiso   1.00
C006   C     0.35407   0.10145   0.15612   1.00000  Uiso   1.00
C007   C     0.35300   0.21416   0.15559   1.00000  Uiso   1.00
C008   C     0.25179   0.26682   0.15463   1.00000  Uiso   1.00
C009   C     0.45402   0.04614   0.15694   1.00000  Uiso   1.00
C010   C     0.55275   0.10532   0.15691   1.00000  Uiso   1.00
C011   C     0.55274   0.21955   0.15687   1.00000  Uiso   1.00
C012   C     0.45078   0.27473   0.15664   1.00000  Uiso   1.00
C013   C     0.65146   0.04612   0.15655   1.00000  Uiso   1.00
C014   C     0.75140   0.10144   0.15553   1.00000  Uiso   1.00
C015   C     0.75245   0.21413   0.15472   1.00000  Uiso   1.00
C016   C     0.65467   0.27470   0.15570   1.00000  Uiso   1.00
C017   C     0.85154   0.04529   0.15540   1.00000  Uiso   1.00
C018   C     0.95236   0.09973   0.15478   1.00000  Uiso   1.00
C019   C     0.95295   0.21109   0.15378   1.00000  Uiso   1.00
C020   C     0.85365   0.26682   0.15366   1.00000  Uiso   1.00
C021   C     0.05274   0.37786   0.15313   1.00000  Uiso   1.00
C022   C     0.15100   0.43382   0.15386   1.00000  Uiso   1.00
C023   C     0.15107   0.54493   0.15446   1.00000  Uiso   1.00
C024   C     0.05278   0.60091   0.15422   1.00000  Uiso   1.00
C025   C     0.24998   0.37810   0.15465   1.00000  Uiso   1.00
C026   C     0.34778   0.43296   0.15646   1.00000  Uiso   1.00
C027   C     0.34789   0.54555   0.15761   1.00000  Uiso   1.00
C028   C     0.25016   0.60055   0.15608   1.00000  Uiso   1.00
C029   C     0.75767   0.43302   0.15445   1.00000  Uiso   1.00
C030   C     0.75762   0.54569   0.15564   1.00000  Uiso   1.00
C031   C     0.85549   0.37814   0.15327   1.00000  Uiso   1.00
C032   C     0.95450   0.43384   0.15302   1.00000  Uiso   1.00
C033   C     0.95448   0.54496   0.15354   1.00000  Uiso   1.00
C034   C     0.85541   0.60061   0.15451   1.00000  Uiso   1.00
C035   C     0.05278   0.71253   0.15527   1.00000  Uiso   1.00
C036   C     0.15260   0.76755   0.15612   1.00000  Uiso   1.00
C037   C     0.05276   0.93369   0.15587   1.00000  Uiso   1.00
C038   C     0.25190   0.71184   0.15666   1.00000  Uiso   1.00
C039   C     0.35324   0.76437   0.15745   1.00000  Uiso   1.00
C040   C     0.35416   0.87716   0.15715   1.00000  Uiso   1.00
C041   C     0.25398   0.93332   0.15649   1.00000  Uiso   1.00
C042   C     0.45106   0.70397   0.15892   1.00000  Uiso   1.00
C043   C     0.55279   0.75915   0.15868   1.00000  Uiso   1.00
C044   C     0.55276   0.87336   0.15778   1.00000  Uiso   1.00
C045   C     0.45404   0.93253   0.15742   1.00000  Uiso   1.00
C046   C     0.65461   0.70397   0.15791   1.00000  Uiso   1.00
C047   C     0.75235   0.76441   0.15628   1.00000  Uiso   1.00
C048   C     0.75136   0.87717   0.15637   1.00000  Uiso   1.00
C049   C     0.65146   0.93253   0.15698   1.00000  Uiso   1.00
C050   C     0.85366   0.71187   0.15547   1.00000  Uiso   1.00
C051   C     0.95298   0.76758   0.15555   1.00000  Uiso   1.00
C052   C     0.85153   0.93333   0.15590   1.00000  Uiso   1.00
C053   C     0.15315   0.87893   0.15627   1.00000  Uiso   1.00
C054   C     0.95237   0.87894   0.15587   1.00000  Uiso   1.00
N001   N     0.44551   0.38337   0.15701   1.00000  Uiso   1.00
N002   N     0.44604   0.59487   0.16003   1.00000  Uiso   1.00
N003   N     0.66002   0.38335   0.15519   1.00000  Uiso   1.00
N004   N     0.65964   0.59503   0.15875   1.00000  Uiso   1.00
N005   N     0.56649   0.54404   0.31042   1.00000  Uiso   1.00
Fe001  Fe    0.55288   0.48931   0.16887   1.00000  Uiso   1.00
O001   O     0.57205   0.50695   0.36638   1.00000  Uiso   1.00
O002   O     0.56988   0.63619   0.29157   1.00000  Uiso   1.00
O003   O     0.55264   0.46410   0.26016   1.00000  Uiso   1.00
loop_
_geom_bond_atom_site_label_1
_geom_bond_atom_site_label_2
_geom_bond_distance
_geom_bond_site_symmetry_2
_ccdc_geom_bond_type
C001   C002    1.433   .     D
C001   C018    1.433   1_455 S
C001   C037    1.417   1_545 S
C002   C003    1.419   .     S
C002   C005    1.436   .     S
C003   C004    1.429   .     D
C003   C008    1.428   .     S
C004   C019    1.429   1_455 S
C004   C021    1.422   .     S
C005   C006    1.439   .     S
C005   C041    1.426   1_545 D
C006   C007    1.436   .     S
C006   C009    1.432   .     D
C007   C008    1.430   .     S
C007   C012    1.443   .     D
C008   C025    1.417   .     D
C009   C010    1.444   .     S
C009   C045    1.447   1_545 S
C010   C011    1.455   .     D
C010   C013    1.444   .     S
C011   C012    1.453   .     S
C011   C016    1.453   .     S
C012   N001    1.385   .     S
C013   C014    1.432   .     D
C013   C049    1.447   1_545 S
C014   C015    1.435   .     S
C014   C017    1.439   .     S
C015   C016    1.443   .     S
C015   C020    1.430   .     D
C016   N003    1.385   .     D
C017   C018    1.436   .     S
C017   C052    1.426   1_545 D
C018   C001    1.433   1_655 S
C018   C019    1.418   .     D
C019   C004    1.429   1_655 S
C019   C020    1.428   .     S
C020   C031    1.418   .     S
C021   C022    1.418   .     D
C021   C032    1.418   1_455 S
C022   C023    1.415   .     S
C022   C025    1.424   .     S
C023   C024    1.418   .     D
C023   C028    1.425   .     S
C024   C033    1.418   1_455 S
C024   C035    1.422   .     S
C025   C026    1.406   .     S
C026   C027    1.434   .     S
C026   N001    1.373   .     D
C027   C028    1.406   .     S
C027   N002    1.377   .     D
C028   C038    1.418   .     D
C029   C030    1.435   .     S
C029   C031    1.406   .     D
C029   N003    1.373   .     S
C030   C034    1.406   .     S
C030   N004    1.376   .     D
C031   C032    1.424   .     S
C032   C021    1.418   1_655 S
C032   C033    1.415   .     D
C033   C024    1.418   1_655 S
C033   C034    1.425   .     S
C034   C050    1.417   .     D
C035   C036    1.429   .     S
C035   C051    1.429   1_455 D
C036   C038    1.428   .     S
C036   C053    1.419   .     D
C037   C001    1.417   1_565 S
C037   C053    1.433   .     S
C037   C054    1.433   1_455 D
C038   C039    1.430   .     S
C039   C040    1.437   .     S
C039   C042    1.443   .     D
C040   C041    1.440   .     S
C040   C045    1.432   .     D
C041   C005    1.426   1_565 D
C041   C053    1.436   .     S
C042   C043    1.451   .     S
C042   N002    1.391   .     S
C043   C044    1.455   .     S
C043   C046    1.452   .     D
C044   C045    1.444   .     S
C044   C049    1.444   .     D
C045   C009    1.447   1_565 S
C046   C047    1.442   .     S
C046   N004    1.389   .     S
C047   C048    1.436   .     D
C047   C050    1.430   .     S
C048   C049    1.432   .     S
C048   C052    1.440   .     S
C049   C013    1.447   1_565 S
C050   C051    1.428   .     S
C051   C035    1.429   1_655 D
C051   C054    1.418   .     S
C052   C017    1.426   1_565 D
C052   C054    1.436   .     S
C054   C037    1.433   1_655 D
N001   Fe001   1.916   .     S
N002   Fe001   1.901   .     S
N003   Fe001   1.919   .     S
N004   Fe001   1.905   .     S
N005   O001    1.216   .     D
N005   O002    1.233   .     S
N005   O003    1.441   .     S
Fe001  O003    1.853   .     S
