data_e-0.2-opt
_audit_creation_date              2024-12-22
_audit_creation_method            'Materials Studio'
_symmetry_space_group_name_H-M    'P1'
_symmetry_Int_Tables_number       1
_symmetry_cell_setting            triclinic
loop_
_symmetry_equiv_pos_as_xyz
  x,y,z
_cell_length_a                    12.4761
_cell_length_b                    12.7392
_cell_length_c                    19.9921
_cell_angle_alpha                 90.0000
_cell_angle_beta                  90.0000
_cell_angle_gamma                 90.0000
loop_
_atom_site_label
_atom_site_type_symbol
_atom_site_fract_x
_atom_site_fract_y
_atom_site_fract_z
_atom_site_U_iso_or_equiv
_atom_site_adp_type
_atom_site_occupancy
C001   C     0.05250   0.04435   0.15520   1.00000  Uiso   1.00
C002   C     0.15299   0.09913   0.15484   1.00000  Uiso   1.00
C003   C     0.15235   0.21052   0.15344   1.00000  Uiso   1.00
C004   C     0.05248   0.26562   0.15239   1.00000  Uiso   1.00
C005   C     0.25380   0.04481   0.15587   1.00000  Uiso   1.00
C006   C     0.35392   0.10103   0.15616   1.00000  Uiso   1.00
C007   C     0.35292   0.21370   0.15534   1.00000  Uiso   1.00
C008   C     0.25154   0.26623   0.15365   1.00000  Uiso   1.00
C009   C     0.45401   0.04560   0.15743   1.00000  Uiso   1.00
C010   C     0.55250   0.10455   0.15770   1.00000  Uiso   1.00
C011   C     0.55250   0.21933   0.15795   1.00000  Uiso   1.00
C012   C     0.45083   0.27440   0.15719   1.00000  Uiso   1.00
C013   C     0.65100   0.04559   0.15733   1.00000  Uiso   1.00
C014   C     0.75107   0.10103   0.15596   1.00000  Uiso   1.00
C015   C     0.75203   0.21370   0.15497   1.00000  Uiso   1.00
C016   C     0.65410   0.27441   0.15674   1.00000  Uiso   1.00
C017   C     0.85120   0.04482   0.15572   1.00000  Uiso   1.00
C018   C     0.95200   0.09914   0.15471   1.00000  Uiso   1.00
C019   C     0.95259   0.21053   0.15325   1.00000  Uiso   1.00
C020   C     0.85341   0.26625   0.15327   1.00000  Uiso   1.00
C021   C     0.05248   0.37704   0.15143   1.00000  Uiso   1.00
C022   C     0.15078   0.43318   0.15174   1.00000  Uiso   1.00
C023   C     0.15082   0.54435   0.15235   1.00000  Uiso   1.00
C024   C     0.05252   0.60050   0.15266   1.00000  Uiso   1.00
C025   C     0.24961   0.37753   0.15286   1.00000  Uiso   1.00
C026   C     0.34734   0.43272   0.15484   1.00000  Uiso   1.00
C027   C     0.34740   0.54457   0.15533   1.00000  Uiso   1.00
C028   C     0.24973   0.59991   0.15396   1.00000  Uiso   1.00
C029   C     0.75760   0.43278   0.15440   1.00000  Uiso   1.00
C030   C     0.75764   0.54462   0.15542   1.00000  Uiso   1.00
C031   C     0.85532   0.37758   0.15251   1.00000  Uiso   1.00
C032   C     0.95420   0.43320   0.15159   1.00000  Uiso   1.00
C033   C     0.95420   0.54437   0.15226   1.00000  Uiso   1.00
C034   C     0.85532   0.59993   0.15396   1.00000  Uiso   1.00
C035   C     0.05253   0.71189   0.15430   1.00000  Uiso   1.00
C036   C     0.15240   0.76694   0.15522   1.00000  Uiso   1.00
C037   C     0.05252   0.93313   0.15586   1.00000  Uiso   1.00
C038   C     0.25159   0.71122   0.15527   1.00000  Uiso   1.00
C039   C     0.35300   0.76371   0.15682   1.00000  Uiso   1.00
C040   C     0.35396   0.87642   0.15715   1.00000  Uiso   1.00
C041   C     0.25382   0.93266   0.15644   1.00000  Uiso   1.00
C042   C     0.45097   0.70306   0.15858   1.00000  Uiso   1.00
C043   C     0.55251   0.75818   0.15960   1.00000  Uiso   1.00
C044   C     0.55251   0.87298   0.15870   1.00000  Uiso   1.00
C045   C     0.45401   0.93191   0.15793   1.00000  Uiso   1.00
C046   C     0.65415   0.70308   0.15888   1.00000  Uiso   1.00
C047   C     0.75209   0.76374   0.15693   1.00000  Uiso   1.00
C048   C     0.75108   0.87644   0.15712   1.00000  Uiso   1.00
C049   C     0.65101   0.93191   0.15789   1.00000  Uiso   1.00
C050   C     0.85348   0.71124   0.15537   1.00000  Uiso   1.00
C051   C     0.95266   0.76695   0.15525   1.00000  Uiso   1.00
C052   C     0.85121   0.93267   0.15637   1.00000  Uiso   1.00
C053   C     0.15300   0.87836   0.15600   1.00000  Uiso   1.00
C054   C     0.95203   0.87836   0.15598   1.00000  Uiso   1.00
N001   N     0.44552   0.38336   0.15771   1.00000  Uiso   1.00
N002   N     0.44592   0.59379   0.15839   1.00000  Uiso   1.00
N003   N     0.65940   0.38340   0.15688   1.00000  Uiso   1.00
N004   N     0.65919   0.59389   0.15909   1.00000  Uiso   1.00
N005   N     0.55177   0.48932   0.26255   1.00000  Uiso   1.00
H001   H     0.61544   0.52414   0.28595   1.00000  Uiso   1.00
H002   H     0.48220   0.51234   0.28536   1.00000  Uiso   1.00
Fe001  Fe    0.55246   0.48910   0.17091   1.00000  Uiso   1.00
loop_
_geom_bond_atom_site_label_1
_geom_bond_atom_site_label_2
_geom_bond_distance
_geom_bond_site_symmetry_2
_ccdc_geom_bond_type
C001   C002    1.435   .     D
C001   C018    1.435   1_455 S
C001   C037    1.417   1_545 S
C002   C003    1.419   .     S
C002   C005    1.436   .     S
C003   C004    1.430   .     D
C003   C008    1.426   .     S
C004   C019    1.430   1_455 S
C004   C021    1.420   .     S
C005   C006    1.440   .     S
C005   C041    1.429   1_545 D
C006   C007    1.435   .     S
C006   C009    1.435   .     D
C007   C008    1.431   .     S
C007   C012    1.446   .     D
C008   C025    1.418   .     D
C009   C010    1.440   .     S
C009   C045    1.448   1_545 S
C010   C011    1.462   .     D
C010   C013    1.440   .     S
C011   C012    1.450   .     S
C011   C016    1.449   .     S
C012   N001    1.390   .     S
C013   C014    1.435   .     D
C013   C049    1.448   1_545 S
C014   C015    1.436   .     S
C014   C017    1.440   .     S
C015   C016    1.446   .     S
C015   C020    1.431   .     D
C016   N003    1.390   .     D
C017   C018    1.436   .     S
C017   C052    1.429   1_545 D
C018   C001    1.435   1_655 S
C018   C019    1.419   .     D
C019   C004    1.430   1_655 S
C019   C020    1.426   .     S
C020   C031    1.419   .     S
C021   C022    1.420   .     D
C021   C032    1.420   1_455 S
C022   C023    1.416   .     S
C022   C025    1.422   .     S
C023   C024    1.420   .     D
C023   C028    1.423   .     S
C024   C033    1.420   1_455 S
C024   C035    1.419   .     S
C025   C026    1.408   .     S
C026   C027    1.425   .     S
C026   N001    1.378   .     D
C027   C028    1.408   .     S
C027   N002    1.381   .     D
C028   C038    1.418   .     D
C029   C030    1.425   .     S
C029   C031    1.408   .     D
C029   N003    1.378   .     S
C030   C034    1.408   .     S
C030   N004    1.381   .     D
C031   C032    1.423   .     S
C032   C021    1.420   1_655 S
C032   C033    1.416   .     D
C033   C024    1.420   1_655 S
C033   C034    1.423   .     S
C034   C050    1.418   .     D
C035   C036    1.430   .     S
C035   C051    1.430   1_455 D
C036   C038    1.427   .     S
C036   C053    1.420   .     D
C037   C001    1.417   1_565 S
C037   C053    1.435   .     S
C037   C054    1.435   1_455 D
C038   C039    1.431   .     S
C039   C040    1.436   .     S
C039   C042    1.446   .     D
C040   C041    1.440   .     S
C040   C045    1.435   .     D
C041   C005    1.429   1_565 D
C041   C053    1.435   .     S
C042   C043    1.449   .     S
C042   N002    1.393   .     S
C043   C044    1.463   .     S
C043   C046    1.449   .     D
C044   C045    1.440   .     S
C044   C049    1.440   .     D
C045   C009    1.448   1_565 S
C046   C047    1.446   .     S
C046   N004    1.392   .     S
C047   C048    1.436   .     D
C047   C050    1.431   .     S
C048   C049    1.435   .     S
C048   C052    1.440   .     S
C049   C013    1.448   1_565 S
C050   C051    1.427   .     S
C051   C035    1.430   1_655 D
C051   C054    1.419   .     S
C052   C017    1.429   1_565 D
C052   C054    1.436   .     S
C054   C037    1.435   1_655 D
N001   Fe001   1.914   .     S
N002   Fe001   1.900   .     S
N003   Fe001   1.916   .     S
N004   Fe001   1.900   .     S
N005   H001    1.023   .     S
N005   H002    1.023   .     S
N005   Fe001   1.832   .     S
