data_e+1.0-opt
_audit_creation_date              2024-12-22
_audit_creation_method            'Materials Studio'
_symmetry_space_group_name_H-M    'P1'
_symmetry_Int_Tables_number       1
_symmetry_cell_setting            triclinic
loop_
_symmetry_equiv_pos_as_xyz
  x,y,z
_cell_length_a                    12.4761
_cell_length_b                    12.7392
_cell_length_c                    19.9921
_cell_angle_alpha                 90.0000
_cell_angle_beta                  90.0000
_cell_angle_gamma                 90.0000
loop_
_atom_site_label
_atom_site_type_symbol
_atom_site_fract_x
_atom_site_fract_y
_atom_site_fract_z
_atom_site_U_iso_or_equiv
_atom_site_adp_type
_atom_site_occupancy
C001   C     0.05250   0.04438   0.15522   1.00000  Uiso   1.00
C002   C     0.15287   0.09911   0.15485   1.00000  Uiso   1.00
C003   C     0.15225   0.21044   0.15346   1.00000  Uiso   1.00
C004   C     0.05249   0.26559   0.15241   1.00000  Uiso   1.00
C005   C     0.25373   0.04473   0.15589   1.00000  Uiso   1.00
C006   C     0.35384   0.10092   0.15615   1.00000  Uiso   1.00
C007   C     0.35280   0.21363   0.15529   1.00000  Uiso   1.00
C008   C     0.25156   0.26620   0.15363   1.00000  Uiso   1.00
C009   C     0.45382   0.04558   0.15745   1.00000  Uiso   1.00
C010   C     0.55250   0.10473   0.15769   1.00000  Uiso   1.00
C011   C     0.55250   0.21918   0.15791   1.00000  Uiso   1.00
C012   C     0.45061   0.27426   0.15708   1.00000  Uiso   1.00
C013   C     0.65119   0.04557   0.15733   1.00000  Uiso   1.00
C014   C     0.75116   0.10090   0.15594   1.00000  Uiso   1.00
C015   C     0.75217   0.21360   0.15492   1.00000  Uiso   1.00
C016   C     0.65435   0.27425   0.15661   1.00000  Uiso   1.00
C017   C     0.85127   0.04473   0.15573   1.00000  Uiso   1.00
C018   C     0.95212   0.09912   0.15472   1.00000  Uiso   1.00
C019   C     0.95271   0.21044   0.15326   1.00000  Uiso   1.00
C020   C     0.85340   0.26621   0.15325   1.00000  Uiso   1.00
C021   C     0.05248   0.37726   0.15143   1.00000  Uiso   1.00
C022   C     0.15071   0.43324   0.15175   1.00000  Uiso   1.00
C023   C     0.15078   0.54439   0.15235   1.00000  Uiso   1.00
C024   C     0.05252   0.60038   0.15268   1.00000  Uiso   1.00
C025   C     0.24961   0.37747   0.15283   1.00000  Uiso   1.00
C026   C     0.34739   0.43242   0.15478   1.00000  Uiso   1.00
C027   C     0.34750   0.54484   0.15533   1.00000  Uiso   1.00
C028   C     0.24981   0.60003   0.15388   1.00000  Uiso   1.00
C029   C     0.75754   0.43245   0.15431   1.00000  Uiso   1.00
C030   C     0.75752   0.54491   0.15538   1.00000  Uiso   1.00
C031   C     0.85533   0.37751   0.15250   1.00000  Uiso   1.00
C032   C     0.95427   0.43326   0.15162   1.00000  Uiso   1.00
C033   C     0.95425   0.54441   0.15227   1.00000  Uiso   1.00
C034   C     0.85524   0.60004   0.15388   1.00000  Uiso   1.00
C035   C     0.05253   0.71200   0.15436   1.00000  Uiso   1.00
C036   C     0.15230   0.76701   0.15528   1.00000  Uiso   1.00
C037   C     0.05252   0.93312   0.15588   1.00000  Uiso   1.00
C038   C     0.25161   0.71127   0.15527   1.00000  Uiso   1.00
C039   C     0.35288   0.76371   0.15679   1.00000  Uiso   1.00
C040   C     0.35391   0.87650   0.15716   1.00000  Uiso   1.00
C041   C     0.25376   0.93272   0.15646   1.00000  Uiso   1.00
C042   C     0.45080   0.70315   0.15860   1.00000  Uiso   1.00
C043   C     0.55251   0.75835   0.15969   1.00000  Uiso   1.00
C044   C     0.55251   0.87282   0.15870   1.00000  Uiso   1.00
C045   C     0.45382   0.93189   0.15793   1.00000  Uiso   1.00
C046   C     0.65431   0.70318   0.15888   1.00000  Uiso   1.00
C047   C     0.75220   0.76375   0.15691   1.00000  Uiso   1.00
C048   C     0.75113   0.87652   0.15713   1.00000  Uiso   1.00
C049   C     0.65120   0.93189   0.15790   1.00000  Uiso   1.00
C050   C     0.85345   0.71128   0.15536   1.00000  Uiso   1.00
C051   C     0.95276   0.76702   0.15530   1.00000  Uiso   1.00
C052   C     0.85128   0.93272   0.15638   1.00000  Uiso   1.00
C053   C     0.15291   0.87837   0.15603   1.00000  Uiso   1.00
C054   C     0.95212   0.87837   0.15601   1.00000  Uiso   1.00
N001   N     0.44499   0.38302   0.15771   1.00000  Uiso   1.00
N002   N     0.44582   0.59385   0.15893   1.00000  Uiso   1.00
N003   N     0.65998   0.38298   0.15682   1.00000  Uiso   1.00
N004   N     0.65931   0.59399   0.15952   1.00000  Uiso   1.00
N005   N     0.55189   0.48736   0.26310   1.00000  Uiso   1.00
H001   H     0.61495   0.52513   0.28550   1.00000  Uiso   1.00
H002   H     0.48242   0.51346   0.28491   1.00000  Uiso   1.00
Fe001  Fe    0.55244   0.48962   0.17065   1.00000  Uiso   1.00
loop_
_geom_bond_atom_site_label_1
_geom_bond_atom_site_label_2
_geom_bond_distance
_geom_bond_site_symmetry_2
_ccdc_geom_bond_type
C001   C002    1.433   .     D
C001   C018    1.433   1_455 S
C001   C037    1.417   1_545 S
C002   C003    1.419   .     S
C002   C005    1.437   .     S
C003   C004    1.429   .     D
C003   C008    1.428   .     S
C004   C019    1.430   1_455 S
C004   C021    1.423   .     S
C005   C006    1.440   .     S
C005   C041    1.427   1_545 D
C006   C007    1.436   .     S
C006   C009    1.433   .     D
C007   C008    1.430   .     S
C007   C012    1.445   .     D
C008   C025    1.418   .     D
C009   C010    1.444   .     S
C009   C045    1.448   1_545 S
C010   C011    1.458   .     D
C010   C013    1.444   .     S
C011   C012    1.452   .     S
C011   C016    1.452   .     S
C012   N001    1.387   .     S
C013   C014    1.433   .     D
C013   C049    1.448   1_545 S
C014   C015    1.436   .     S
C014   C017    1.440   .     S
C015   C016    1.445   .     S
C015   C020    1.430   .     D
C016   N003    1.387   .     D
C017   C018    1.436   .     S
C017   C052    1.427   1_545 D
C018   C001    1.433   1_655 S
C018   C019    1.419   .     D
C019   C004    1.430   1_655 S
C019   C020    1.428   .     S
C020   C031    1.418   .     S
C021   C022    1.418   .     D
C021   C032    1.418   1_455 S
C022   C023    1.416   .     S
C022   C025    1.424   .     S
C023   C024    1.418   .     D
C023   C028    1.425   .     S
C024   C033    1.418   1_455 S
C024   C035    1.422   .     S
C025   C026    1.407   .     S
C026   C027    1.432   .     S
C026   N001    1.372   .     D
C027   C028    1.407   .     S
C027   N002    1.378   .     D
C028   C038    1.418   .     D
C029   C030    1.433   .     S
C029   C031    1.407   .     D
C029   N003    1.372   .     S
C030   C034    1.407   .     S
C030   N004    1.378   .     D
C031   C032    1.424   .     S
C032   C021    1.418   1_655 S
C032   C033    1.416   .     D
C033   C024    1.418   1_655 S
C033   C034    1.424   .     S
C034   C050    1.418   .     D
C035   C036    1.429   .     S
C035   C051    1.429   1_455 D
C036   C038    1.428   .     S
C036   C053    1.419   .     D
C037   C001    1.417   1_565 S
C037   C053    1.434   .     S
C037   C054    1.434   1_455 D
C038   C039    1.430   .     S
C039   C040    1.437   .     S
C039   C042    1.445   .     D
C040   C041    1.440   .     S
C040   C045    1.432   .     D
C041   C005    1.427   1_565 D
C041   C053    1.436   .     S
C042   C043    1.451   .     S
C042   N002    1.394   .     S
C043   C044    1.458   .     S
C043   C046    1.452   .     D
C044   C045    1.443   .     S
C044   C049    1.443   .     D
C045   C009    1.448   1_565 S
C046   C047    1.445   .     S
C046   N004    1.392   .     S
C047   C048    1.437   .     D
C047   C050    1.429   .     S
C048   C049    1.433   .     S
C048   C052    1.440   .     S
C049   C013    1.448   1_565 S
C050   C051    1.428   .     S
C051   C035    1.429   1_655 D
C051   C054    1.419   .     S
C052   C017    1.427   1_565 D
C052   C054    1.436   .     S
C054   C037    1.434   1_655 D
N001   Fe001   1.926   .     S
N002   Fe001   1.894   .     S
N003   Fe001   1.929   .     S
N004   Fe001   1.896   .     S
N005   H001    1.025   .     S
N005   H002    1.026   .     S
N005   Fe001   1.849   .     S
