data_e+0.2-opt
_audit_creation_date              2024-12-22
_audit_creation_method            'Materials Studio'
_symmetry_space_group_name_H-M    'P1'
_symmetry_Int_Tables_number       1
_symmetry_cell_setting            triclinic
loop_
_symmetry_equiv_pos_as_xyz
  x,y,z
_cell_length_a                    12.4761
_cell_length_b                    12.7392
_cell_length_c                    19.9921
_cell_angle_alpha                 90.0000
_cell_angle_beta                  90.0000
_cell_angle_gamma                 90.0000
loop_
_atom_site_label
_atom_site_type_symbol
_atom_site_fract_x
_atom_site_fract_y
_atom_site_fract_z
_atom_site_U_iso_or_equiv
_atom_site_adp_type
_atom_site_occupancy
C001   C     0.05250   0.04440   0.15521   1.00000  Uiso   1.00
C002   C     0.15296   0.09914   0.15484   1.00000  Uiso   1.00
C003   C     0.15235   0.21055   0.15345   1.00000  Uiso   1.00
C004   C     0.05249   0.26559   0.15241   1.00000  Uiso   1.00
C005   C     0.25381   0.04484   0.15589   1.00000  Uiso   1.00
C006   C     0.35393   0.10103   0.15617   1.00000  Uiso   1.00
C007   C     0.35293   0.21377   0.15530   1.00000  Uiso   1.00
C008   C     0.25155   0.26624   0.15363   1.00000  Uiso   1.00
C009   C     0.45399   0.04566   0.15743   1.00000  Uiso   1.00
C010   C     0.55251   0.10463   0.15766   1.00000  Uiso   1.00
C011   C     0.55251   0.21934   0.15787   1.00000  Uiso   1.00
C012   C     0.45080   0.27444   0.15709   1.00000  Uiso   1.00
C013   C     0.65102   0.04564   0.15732   1.00000  Uiso   1.00
C014   C     0.75107   0.10103   0.15596   1.00000  Uiso   1.00
C015   C     0.75204   0.21377   0.15492   1.00000  Uiso   1.00
C016   C     0.65416   0.27444   0.15663   1.00000  Uiso   1.00
C017   C     0.85119   0.04483   0.15573   1.00000  Uiso   1.00
C018   C     0.95203   0.09914   0.15472   1.00000  Uiso   1.00
C019   C     0.95261   0.21055   0.15326   1.00000  Uiso   1.00
C020   C     0.85341   0.26625   0.15324   1.00000  Uiso   1.00
C021   C     0.05249   0.37711   0.15144   1.00000  Uiso   1.00
C022   C     0.15075   0.43320   0.15174   1.00000  Uiso   1.00
C023   C     0.15080   0.54437   0.15238   1.00000  Uiso   1.00
C024   C     0.05252   0.60046   0.15269   1.00000  Uiso   1.00
C025   C     0.24965   0.37756   0.15282   1.00000  Uiso   1.00
C026   C     0.34731   0.43269   0.15479   1.00000  Uiso   1.00
C027   C     0.34737   0.54463   0.15535   1.00000  Uiso   1.00
C028   C     0.24978   0.59993   0.15397   1.00000  Uiso   1.00
C029   C     0.75763   0.43273   0.15435   1.00000  Uiso   1.00
C030   C     0.75766   0.54466   0.15542   1.00000  Uiso   1.00
C031   C     0.85530   0.37759   0.15246   1.00000  Uiso   1.00
C032   C     0.95423   0.43322   0.15159   1.00000  Uiso   1.00
C033   C     0.95422   0.54438   0.15228   1.00000  Uiso   1.00
C034   C     0.85526   0.59994   0.15396   1.00000  Uiso   1.00
C035   C     0.05252   0.71195   0.15435   1.00000  Uiso   1.00
C036   C     0.15239   0.76696   0.15528   1.00000  Uiso   1.00
C037   C     0.05251   0.93314   0.15587   1.00000  Uiso   1.00
C038   C     0.25160   0.71125   0.15532   1.00000  Uiso   1.00
C039   C     0.35300   0.76368   0.15683   1.00000  Uiso   1.00
C040   C     0.35397   0.87647   0.15718   1.00000  Uiso   1.00
C041   C     0.25382   0.93269   0.15647   1.00000  Uiso   1.00
C042   C     0.45092   0.70307   0.15856   1.00000  Uiso   1.00
C043   C     0.55251   0.75822   0.15956   1.00000  Uiso   1.00
C044   C     0.55251   0.87296   0.15868   1.00000  Uiso   1.00
C045   C     0.45399   0.93191   0.15793   1.00000  Uiso   1.00
C046   C     0.65417   0.70308   0.15884   1.00000  Uiso   1.00
C047   C     0.75207   0.76370   0.15694   1.00000  Uiso   1.00
C048   C     0.75106   0.87647   0.15714   1.00000  Uiso   1.00
C049   C     0.65103   0.93191   0.15789   1.00000  Uiso   1.00
C050   C     0.85345   0.71125   0.15540   1.00000  Uiso   1.00
C051   C     0.95266   0.76696   0.15530   1.00000  Uiso   1.00
C052   C     0.85120   0.93268   0.15639   1.00000  Uiso   1.00
C053   C     0.15297   0.87841   0.15603   1.00000  Uiso   1.00
C054   C     0.95205   0.87840   0.15601   1.00000  Uiso   1.00
N001   N     0.44552   0.38341   0.15770   1.00000  Uiso   1.00
N002   N     0.44594   0.59376   0.15862   1.00000  Uiso   1.00
N003   N     0.65943   0.38341   0.15691   1.00000  Uiso   1.00
N004   N     0.65915   0.59383   0.15924   1.00000  Uiso   1.00
N005   N     0.55198   0.48641   0.26358   1.00000  Uiso   1.00
H001   H     0.61490   0.52509   0.28544   1.00000  Uiso   1.00
H002   H     0.48250   0.51344   0.28485   1.00000  Uiso   1.00
Fe001  Fe    0.55247   0.48893   0.17067   1.00000  Uiso   1.00
loop_
_geom_bond_atom_site_label_1
_geom_bond_atom_site_label_2
_geom_bond_distance
_geom_bond_site_symmetry_2
_ccdc_geom_bond_type
C001   C002    1.434   .     D
C001   C018    1.434   1_455 S
C001   C037    1.418   1_545 S
C002   C003    1.420   .     S
C002   C005    1.436   .     S
C003   C004    1.430   .     D
C003   C008    1.427   .     S
C004   C019    1.430   1_455 S
C004   C021    1.421   .     S
C005   C006    1.440   .     S
C005   C041    1.429   1_545 D
C006   C007    1.436   .     S
C006   C009    1.434   .     D
C007   C008    1.431   .     S
C007   C012    1.446   .     D
C008   C025    1.418   .     D
C009   C010    1.441   .     S
C009   C045    1.449   1_545 S
C010   C011    1.461   .     D
C010   C013    1.441   .     S
C011   C012    1.450   .     S
C011   C016    1.450   .     S
C012   N001    1.390   .     S
C013   C014    1.434   .     D
C013   C049    1.449   1_545 S
C014   C015    1.436   .     S
C014   C017    1.440   .     S
C015   C016    1.446   .     S
C015   C020    1.431   .     D
C016   N003    1.390   .     D
C017   C018    1.436   .     S
C017   C052    1.429   1_545 D
C018   C001    1.434   1_655 S
C018   C019    1.420   .     D
C019   C004    1.430   1_655 S
C019   C020    1.427   .     S
C020   C031    1.419   .     S
C021   C022    1.419   .     D
C021   C032    1.419   1_455 S
C022   C023    1.416   .     S
C022   C025    1.423   .     S
C023   C024    1.419   .     D
C023   C028    1.424   .     S
C024   C033    1.419   1_455 S
C024   C035    1.421   .     S
C025   C026    1.407   .     S
C026   C027    1.426   .     S
C026   N001    1.378   .     D
C027   C028    1.407   .     S
C027   N002    1.381   .     D
C028   C038    1.419   .     D
C029   C030    1.426   .     S
C029   C031    1.407   .     D
C029   N003    1.378   .     S
C030   C034    1.407   .     S
C030   N004    1.382   .     D
C031   C032    1.423   .     S
C032   C021    1.419   1_655 S
C032   C033    1.416   .     D
C033   C024    1.419   1_655 S
C033   C034    1.424   .     S
C034   C050    1.419   .     D
C035   C036    1.430   .     S
C035   C051    1.430   1_455 D
C036   C038    1.427   .     S
C036   C053    1.420   .     D
C037   C001    1.418   1_565 S
C037   C053    1.434   .     S
C037   C054    1.434   1_455 D
C038   C039    1.431   .     S
C039   C040    1.437   .     S
C039   C042    1.446   .     D
C040   C041    1.440   .     S
C040   C045    1.434   .     D
C041   C005    1.429   1_565 D
C041   C053    1.436   .     S
C042   C043    1.449   .     S
C042   N002    1.394   .     S
C043   C044    1.462   .     S
C043   C046    1.450   .     D
C044   C045    1.440   .     S
C044   C049    1.440   .     D
C045   C009    1.449   1_565 S
C046   C047    1.446   .     S
C046   N004    1.393   .     S
C047   C048    1.437   .     D
C047   C050    1.431   .     S
C048   C049    1.434   .     S
C048   C052    1.440   .     S
C049   C013    1.449   1_565 S
C050   C051    1.427   .     S
C051   C035    1.430   1_655 D
C051   C054    1.420   .     S
C052   C017    1.429   1_565 D
C052   C054    1.436   .     S
C054   C037    1.434   1_655 D
N001   Fe001   1.912   .     S
N002   Fe001   1.900   .     S
N003   Fe001   1.914   .     S
N004   Fe001   1.900   .     S
N005   H001    1.025   .     S
N005   H002    1.025   .     S
N005   Fe001   1.858   .     S
