data_e+0.4-opt
_audit_creation_date              2024-12-22
_audit_creation_method            'Materials Studio'
_symmetry_space_group_name_H-M    'P1'
_symmetry_Int_Tables_number       1
_symmetry_cell_setting            triclinic
loop_
_symmetry_equiv_pos_as_xyz
  x,y,z
_cell_length_a                    12.4761
_cell_length_b                    12.7392
_cell_length_c                    19.9921
_cell_angle_alpha                 90.0000
_cell_angle_beta                  90.0000
_cell_angle_gamma                 90.0000
loop_
_atom_site_label
_atom_site_type_symbol
_atom_site_fract_x
_atom_site_fract_y
_atom_site_fract_z
_atom_site_U_iso_or_equiv
_atom_site_adp_type
_atom_site_occupancy
C001   C     0.05250   0.04439   0.15520   1.00000  Uiso   1.00
C002   C     0.15295   0.09914   0.15483   1.00000  Uiso   1.00
C003   C     0.15235   0.21053   0.15344   1.00000  Uiso   1.00
C004   C     0.05249   0.26561   0.15240   1.00000  Uiso   1.00
C005   C     0.25382   0.04479   0.15587   1.00000  Uiso   1.00
C006   C     0.35393   0.10102   0.15616   1.00000  Uiso   1.00
C007   C     0.35295   0.21376   0.15531   1.00000  Uiso   1.00
C008   C     0.25156   0.26624   0.15362   1.00000  Uiso   1.00
C009   C     0.45399   0.04564   0.15745   1.00000  Uiso   1.00
C010   C     0.55251   0.10463   0.15771   1.00000  Uiso   1.00
C011   C     0.55251   0.21931   0.15796   1.00000  Uiso   1.00
C012   C     0.45079   0.27442   0.15713   1.00000  Uiso   1.00
C013   C     0.65102   0.04563   0.15734   1.00000  Uiso   1.00
C014   C     0.75107   0.10102   0.15595   1.00000  Uiso   1.00
C015   C     0.75202   0.21376   0.15493   1.00000  Uiso   1.00
C016   C     0.65417   0.27443   0.15670   1.00000  Uiso   1.00
C017   C     0.85118   0.04480   0.15572   1.00000  Uiso   1.00
C018   C     0.95204   0.09915   0.15471   1.00000  Uiso   1.00
C019   C     0.95260   0.21053   0.15325   1.00000  Uiso   1.00
C020   C     0.85341   0.26625   0.15324   1.00000  Uiso   1.00
C021   C     0.05248   0.37710   0.15142   1.00000  Uiso   1.00
C022   C     0.15075   0.43319   0.15173   1.00000  Uiso   1.00
C023   C     0.15079   0.54435   0.15234   1.00000  Uiso   1.00
C024   C     0.05252   0.60044   0.15265   1.00000  Uiso   1.00
C025   C     0.24968   0.37755   0.15284   1.00000  Uiso   1.00
C026   C     0.34734   0.43267   0.15486   1.00000  Uiso   1.00
C027   C     0.34740   0.54463   0.15542   1.00000  Uiso   1.00
C028   C     0.24981   0.59991   0.15395   1.00000  Uiso   1.00
C029   C     0.75761   0.43270   0.15443   1.00000  Uiso   1.00
C030   C     0.75763   0.54467   0.15548   1.00000  Uiso   1.00
C031   C     0.85527   0.37759   0.15249   1.00000  Uiso   1.00
C032   C     0.95423   0.43321   0.15158   1.00000  Uiso   1.00
C033   C     0.95423   0.54436   0.15226   1.00000  Uiso   1.00
C034   C     0.85523   0.59992   0.15395   1.00000  Uiso   1.00
C035   C     0.05252   0.71190   0.15432   1.00000  Uiso   1.00
C036   C     0.15241   0.76694   0.15523   1.00000  Uiso   1.00
C037   C     0.05251   0.93312   0.15586   1.00000  Uiso   1.00
C038   C     0.25160   0.71122   0.15526   1.00000  Uiso   1.00
C039   C     0.35302   0.76366   0.15680   1.00000  Uiso   1.00
C040   C     0.35396   0.87644   0.15715   1.00000  Uiso   1.00
C041   C     0.25383   0.93269   0.15644   1.00000  Uiso   1.00
C042   C     0.45091   0.70305   0.15860   1.00000  Uiso   1.00
C043   C     0.55251   0.75823   0.15963   1.00000  Uiso   1.00
C044   C     0.55251   0.87294   0.15871   1.00000  Uiso   1.00
C045   C     0.45399   0.93189   0.15793   1.00000  Uiso   1.00
C046   C     0.65418   0.70306   0.15886   1.00000  Uiso   1.00
C047   C     0.75205   0.76368   0.15692   1.00000  Uiso   1.00
C048   C     0.75107   0.87646   0.15713   1.00000  Uiso   1.00
C049   C     0.65103   0.93189   0.15790   1.00000  Uiso   1.00
C050   C     0.85345   0.71123   0.15536   1.00000  Uiso   1.00
C051   C     0.95265   0.76695   0.15526   1.00000  Uiso   1.00
C052   C     0.85119   0.93270   0.15637   1.00000  Uiso   1.00
C053   C     0.15298   0.87835   0.15600   1.00000  Uiso   1.00
C054   C     0.95205   0.87835   0.15599   1.00000  Uiso   1.00
N001   N     0.44554   0.38339   0.15779   1.00000  Uiso   1.00
N002   N     0.44600   0.59372   0.15880   1.00000  Uiso   1.00
N003   N     0.65942   0.38340   0.15706   1.00000  Uiso   1.00
N004   N     0.65909   0.59379   0.15934   1.00000  Uiso   1.00
N005   N     0.55209   0.48535   0.26409   1.00000  Uiso   1.00
H001   H     0.61461   0.52618   0.28493   1.00000  Uiso   1.00
H002   H     0.48262   0.51447   0.28436   1.00000  Uiso   1.00
Fe001  Fe    0.55248   0.48886   0.17047   1.00000  Uiso   1.00
loop_
_geom_bond_atom_site_label_1
_geom_bond_atom_site_label_2
_geom_bond_distance
_geom_bond_site_symmetry_2
_ccdc_geom_bond_type
C001   C002    1.434   .     D
C001   C018    1.434   1_455 S
C001   C037    1.418   1_545 S
C002   C003    1.419   .     S
C002   C005    1.436   .     S
C003   C004    1.430   .     D
C003   C008    1.427   .     S
C004   C019    1.430   1_455 S
C004   C021    1.420   .     S
C005   C006    1.440   .     S
C005   C041    1.428   1_545 D
C006   C007    1.436   .     S
C006   C009    1.434   .     D
C007   C008    1.431   .     S
C007   C012    1.445   .     D
C008   C025    1.418   .     D
C009   C010    1.441   .     S
C009   C045    1.449   1_545 S
C010   C011    1.461   .     D
C010   C013    1.441   .     S
C011   C012    1.450   .     S
C011   C016    1.450   .     S
C012   N001    1.390   .     S
C013   C014    1.434   .     D
C013   C049    1.449   1_545 S
C014   C015    1.436   .     S
C014   C017    1.440   .     S
C015   C016    1.445   .     S
C015   C020    1.431   .     D
C016   N003    1.390   .     D
C017   C018    1.436   .     S
C017   C052    1.428   1_545 D
C018   C001    1.434   1_655 S
C018   C019    1.419   .     D
C019   C004    1.430   1_655 S
C019   C020    1.427   .     S
C020   C031    1.419   .     S
C021   C022    1.419   .     D
C021   C032    1.419   1_455 S
C022   C023    1.416   .     S
C022   C025    1.423   .     S
C023   C024    1.419   .     D
C023   C028    1.424   .     S
C024   C033    1.419   1_455 S
C024   C035    1.420   .     S
C025   C026    1.407   .     S
C026   C027    1.426   .     S
C026   N001    1.378   .     D
C027   C028    1.407   .     S
C027   N002    1.382   .     D
C028   C038    1.418   .     D
C029   C030    1.427   .     S
C029   C031    1.407   .     D
C029   N003    1.378   .     S
C030   C034    1.407   .     S
C030   N004    1.382   .     D
C031   C032    1.424   .     S
C032   C021    1.419   1_655 S
C032   C033    1.416   .     D
C033   C024    1.419   1_655 S
C033   C034    1.424   .     S
C034   C050    1.418   .     D
C035   C036    1.430   .     S
C035   C051    1.430   1_455 D
C036   C038    1.427   .     S
C036   C053    1.419   .     D
C037   C001    1.418   1_565 S
C037   C053    1.435   .     S
C037   C054    1.434   1_455 D
C038   C039    1.431   .     S
C039   C040    1.437   .     S
C039   C042    1.445   .     D
C040   C041    1.440   .     S
C040   C045    1.434   .     D
C041   C005    1.428   1_565 D
C041   C053    1.436   .     S
C042   C043    1.450   .     S
C042   N002    1.394   .     S
C043   C044    1.461   .     S
C043   C046    1.450   .     D
C044   C045    1.440   .     S
C044   C049    1.441   .     D
C045   C009    1.449   1_565 S
C046   C047    1.445   .     S
C046   N004    1.393   .     S
C047   C048    1.437   .     D
C047   C050    1.431   .     S
C048   C049    1.434   .     S
C048   C052    1.440   .     S
C049   C013    1.449   1_565 S
C050   C051    1.427   .     S
C051   C035    1.430   1_655 D
C051   C054    1.419   .     S
C052   C017    1.428   1_565 D
C052   C054    1.436   .     S
C054   C037    1.434   1_655 D
N001   Fe001   1.910   .     S
N002   Fe001   1.898   .     S
N003   Fe001   1.912   .     S
N004   Fe001   1.899   .     S
N005   H001    1.026   .     S
N005   H002    1.026   .     S
N005   Fe001   1.872   .     S
