data_e+0.8-opt
_audit_creation_date              2024-12-22
_audit_creation_method            'Materials Studio'
_symmetry_space_group_name_H-M    'P1'
_symmetry_Int_Tables_number       1
_symmetry_cell_setting            triclinic
loop_
_symmetry_equiv_pos_as_xyz
  x,y,z
_cell_length_a                    12.4761
_cell_length_b                    12.7392
_cell_length_c                    19.9921
_cell_angle_alpha                 90.0000
_cell_angle_beta                  90.0000
_cell_angle_gamma                 90.0000
loop_
_atom_site_label
_atom_site_type_symbol
_atom_site_fract_x
_atom_site_fract_y
_atom_site_fract_z
_atom_site_U_iso_or_equiv
_atom_site_adp_type
_atom_site_occupancy
C001   C     0.05250   0.04438   0.15521   1.00000  Uiso   1.00
C002   C     0.15291   0.09913   0.15485   1.00000  Uiso   1.00
C003   C     0.15229   0.21048   0.15346   1.00000  Uiso   1.00
C004   C     0.05249   0.26561   0.15241   1.00000  Uiso   1.00
C005   C     0.25376   0.04475   0.15589   1.00000  Uiso   1.00
C006   C     0.35387   0.10097   0.15615   1.00000  Uiso   1.00
C007   C     0.35286   0.21367   0.15530   1.00000  Uiso   1.00
C008   C     0.25155   0.26623   0.15363   1.00000  Uiso   1.00
C009   C     0.45388   0.04560   0.15744   1.00000  Uiso   1.00
C010   C     0.55250   0.10468   0.15769   1.00000  Uiso   1.00
C011   C     0.55250   0.21923   0.15791   1.00000  Uiso   1.00
C012   C     0.45069   0.27432   0.15707   1.00000  Uiso   1.00
C013   C     0.65112   0.04558   0.15733   1.00000  Uiso   1.00
C014   C     0.75113   0.10096   0.15595   1.00000  Uiso   1.00
C015   C     0.75211   0.21365   0.15492   1.00000  Uiso   1.00
C016   C     0.65428   0.27431   0.15661   1.00000  Uiso   1.00
C017   C     0.85124   0.04475   0.15573   1.00000  Uiso   1.00
C018   C     0.95208   0.09914   0.15472   1.00000  Uiso   1.00
C019   C     0.95267   0.21048   0.15326   1.00000  Uiso   1.00
C020   C     0.85340   0.26623   0.15325   1.00000  Uiso   1.00
C021   C     0.05248   0.37720   0.15143   1.00000  Uiso   1.00
C022   C     0.15073   0.43323   0.15175   1.00000  Uiso   1.00
C023   C     0.15078   0.54439   0.15237   1.00000  Uiso   1.00
C024   C     0.05252   0.60043   0.15268   1.00000  Uiso   1.00
C025   C     0.24963   0.37750   0.15283   1.00000  Uiso   1.00
C026   C     0.34737   0.43254   0.15476   1.00000  Uiso   1.00
C027   C     0.34746   0.54474   0.15530   1.00000  Uiso   1.00
C028   C     0.24981   0.59999   0.15391   1.00000  Uiso   1.00
C029   C     0.75757   0.43257   0.15429   1.00000  Uiso   1.00
C030   C     0.75757   0.54480   0.15536   1.00000  Uiso   1.00
C031   C     0.85531   0.37754   0.15250   1.00000  Uiso   1.00
C032   C     0.95425   0.43325   0.15162   1.00000  Uiso   1.00
C033   C     0.95424   0.54440   0.15228   1.00000  Uiso   1.00
C034   C     0.85523   0.60000   0.15390   1.00000  Uiso   1.00
C035   C     0.05253   0.71196   0.15436   1.00000  Uiso   1.00
C036   C     0.15235   0.76698   0.15527   1.00000  Uiso   1.00
C037   C     0.05251   0.93313   0.15588   1.00000  Uiso   1.00
C038   C     0.25160   0.71125   0.15529   1.00000  Uiso   1.00
C039   C     0.35293   0.76369   0.15680   1.00000  Uiso   1.00
C040   C     0.35394   0.87648   0.15716   1.00000  Uiso   1.00
C041   C     0.25378   0.93272   0.15646   1.00000  Uiso   1.00
C042   C     0.45086   0.70310   0.15858   1.00000  Uiso   1.00
C043   C     0.55251   0.75830   0.15967   1.00000  Uiso   1.00
C044   C     0.55251   0.87288   0.15870   1.00000  Uiso   1.00
C045   C     0.45389   0.93190   0.15793   1.00000  Uiso   1.00
C046   C     0.65425   0.70312   0.15886   1.00000  Uiso   1.00
C047   C     0.75215   0.76373   0.15691   1.00000  Uiso   1.00
C048   C     0.75110   0.87649   0.15713   1.00000  Uiso   1.00
C049   C     0.65113   0.93190   0.15790   1.00000  Uiso   1.00
C050   C     0.85345   0.71126   0.15537   1.00000  Uiso   1.00
C051   C     0.95272   0.76699   0.15530   1.00000  Uiso   1.00
C052   C     0.85125   0.93272   0.15638   1.00000  Uiso   1.00
C053   C     0.15294   0.87835   0.15603   1.00000  Uiso   1.00
C054   C     0.95209   0.87836   0.15601   1.00000  Uiso   1.00
N001   N     0.44522   0.38317   0.15765   1.00000  Uiso   1.00
N002   N     0.44596   0.59375   0.15879   1.00000  Uiso   1.00
N003   N     0.65974   0.38315   0.15679   1.00000  Uiso   1.00
N004   N     0.65917   0.59387   0.15939   1.00000  Uiso   1.00
N005   N     0.55191   0.48716   0.26334   1.00000  Uiso   1.00
H001   H     0.61499   0.52519   0.28552   1.00000  Uiso   1.00
H002   H     0.48239   0.51352   0.28492   1.00000  Uiso   1.00
Fe001  Fe    0.55245   0.48938   0.17076   1.00000  Uiso   1.00
loop_
_geom_bond_atom_site_label_1
_geom_bond_atom_site_label_2
_geom_bond_distance
_geom_bond_site_symmetry_2
_ccdc_geom_bond_type
C001   C002    1.434   .     D
C001   C018    1.434   1_455 S
C001   C037    1.417   1_545 S
C002   C003    1.419   .     S
C002   C005    1.437   .     S
C003   C004    1.430   .     D
C003   C008    1.428   .     S
C004   C019    1.430   1_455 S
C004   C021    1.422   .     S
C005   C006    1.440   .     S
C005   C041    1.427   1_545 D
C006   C007    1.436   .     S
C006   C009    1.434   .     D
C007   C008    1.431   .     S
C007   C012    1.445   .     D
C008   C025    1.418   .     D
C009   C010    1.442   .     S
C009   C045    1.448   1_545 S
C010   C011    1.459   .     D
C010   C013    1.442   .     S
C011   C012    1.451   .     S
C011   C016    1.451   .     S
C012   N001    1.388   .     S
C013   C014    1.434   .     D
C013   C049    1.448   1_545 S
C014   C015    1.436   .     S
C014   C017    1.440   .     S
C015   C016    1.445   .     S
C015   C020    1.431   .     D
C016   N003    1.388   .     D
C017   C018    1.436   .     S
C017   C052    1.427   1_545 D
C018   C001    1.434   1_655 S
C018   C019    1.419   .     D
C019   C004    1.430   1_655 S
C019   C020    1.428   .     S
C020   C031    1.418   .     S
C021   C022    1.418   .     D
C021   C032    1.418   1_455 S
C022   C023    1.416   .     S
C022   C025    1.424   .     S
C023   C024    1.419   .     D
C023   C028    1.425   .     S
C024   C033    1.419   1_455 S
C024   C035    1.421   .     S
C025   C026    1.407   .     S
C026   C027    1.429   .     S
C026   N001    1.374   .     D
C027   C028    1.407   .     S
C027   N002    1.380   .     D
C028   C038    1.418   .     D
C029   C030    1.430   .     S
C029   C031    1.407   .     D
C029   N003    1.374   .     S
C030   C034    1.407   .     S
C030   N004    1.380   .     D
C031   C032    1.424   .     S
C032   C021    1.418   1_655 S
C032   C033    1.416   .     D
C033   C024    1.419   1_655 S
C033   C034    1.424   .     S
C034   C050    1.418   .     D
C035   C036    1.429   .     S
C035   C051    1.429   1_455 D
C036   C038    1.427   .     S
C036   C053    1.419   .     D
C037   C001    1.417   1_565 S
C037   C053    1.434   .     S
C037   C054    1.434   1_455 D
C038   C039    1.430   .     S
C039   C040    1.437   .     S
C039   C042    1.446   .     D
C040   C041    1.440   .     S
C040   C045    1.433   .     D
C041   C005    1.427   1_565 D
C041   C053    1.436   .     S
C042   C043    1.450   .     S
C042   N002    1.394   .     S
C043   C044    1.460   .     S
C043   C046    1.451   .     D
C044   C045    1.442   .     S
C044   C049    1.442   .     D
C045   C009    1.448   1_565 S
C046   C047    1.445   .     S
C046   N004    1.393   .     S
C047   C048    1.437   .     D
C047   C050    1.430   .     S
C048   C049    1.433   .     S
C048   C052    1.440   .     S
C049   C013    1.448   1_565 S
C050   C051    1.428   .     S
C051   C035    1.429   1_655 D
C051   C054    1.419   .     S
C052   C017    1.427   1_565 D
C052   C054    1.436   .     S
C054   C037    1.434   1_655 D
N001   Fe001   1.921   .     S
N002   Fe001   1.895   .     S
N003   Fe001   1.924   .     S
N004   Fe001   1.896   .     S
N005   H001    1.025   .     S
N005   H002    1.025   .     S
N005   Fe001   1.851   .     S
