data_e-0.6-opt
_audit_creation_date              2024-12-22
_audit_creation_method            'Materials Studio'
_symmetry_space_group_name_H-M    'P1'
_symmetry_Int_Tables_number       1
_symmetry_cell_setting            triclinic
loop_
_symmetry_equiv_pos_as_xyz
  x,y,z
_cell_length_a                    12.4761
_cell_length_b                    12.7392
_cell_length_c                    19.9921
_cell_angle_alpha                 90.0000
_cell_angle_beta                  90.0000
_cell_angle_gamma                 90.0000
loop_
_atom_site_label
_atom_site_type_symbol
_atom_site_fract_x
_atom_site_fract_y
_atom_site_fract_z
_atom_site_U_iso_or_equiv
_atom_site_adp_type
_atom_site_occupancy
C001   C     0.05249   0.04433   0.15515   1.00000  Uiso   1.00
C002   C     0.15297   0.09912   0.15480   1.00000  Uiso   1.00
C003   C     0.15235   0.21050   0.15343   1.00000  Uiso   1.00
C004   C     0.05247   0.26561   0.15236   1.00000  Uiso   1.00
C005   C     0.25380   0.04480   0.15584   1.00000  Uiso   1.00
C006   C     0.35391   0.10103   0.15616   1.00000  Uiso   1.00
C007   C     0.35292   0.21371   0.15541   1.00000  Uiso   1.00
C008   C     0.25152   0.26622   0.15369   1.00000  Uiso   1.00
C009   C     0.45400   0.04561   0.15745   1.00000  Uiso   1.00
C010   C     0.55249   0.10451   0.15776   1.00000  Uiso   1.00
C011   C     0.55249   0.21934   0.15810   1.00000  Uiso   1.00
C012   C     0.45084   0.27439   0.15743   1.00000  Uiso   1.00
C013   C     0.65099   0.04560   0.15735   1.00000  Uiso   1.00
C014   C     0.75105   0.10105   0.15598   1.00000  Uiso   1.00
C015   C     0.75199   0.21374   0.15504   1.00000  Uiso   1.00
C016   C     0.65404   0.27441   0.15692   1.00000  Uiso   1.00
C017   C     0.85118   0.04482   0.15570   1.00000  Uiso   1.00
C018   C     0.95200   0.09914   0.15469   1.00000  Uiso   1.00
C019   C     0.95256   0.21052   0.15325   1.00000  Uiso   1.00
C020   C     0.85338   0.26625   0.15331   1.00000  Uiso   1.00
C021   C     0.05247   0.37705   0.15140   1.00000  Uiso   1.00
C022   C     0.15078   0.43313   0.15167   1.00000  Uiso   1.00
C023   C     0.15082   0.54437   0.15226   1.00000  Uiso   1.00
C024   C     0.05252   0.60046   0.15258   1.00000  Uiso   1.00
C025   C     0.24960   0.37752   0.15282   1.00000  Uiso   1.00
C026   C     0.34738   0.43273   0.15470   1.00000  Uiso   1.00
C027   C     0.34740   0.54458   0.15484   1.00000  Uiso   1.00
C028   C     0.24967   0.59993   0.15371   1.00000  Uiso   1.00
C029   C     0.75752   0.43283   0.15427   1.00000  Uiso   1.00
C030   C     0.75765   0.54467   0.15507   1.00000  Uiso   1.00
C031   C     0.85530   0.37758   0.15249   1.00000  Uiso   1.00
C032   C     0.95417   0.43316   0.15155   1.00000  Uiso   1.00
C033   C     0.95421   0.54439   0.15218   1.00000  Uiso   1.00
C034   C     0.85538   0.59997   0.15376   1.00000  Uiso   1.00
C035   C     0.05253   0.71188   0.15418   1.00000  Uiso   1.00
C036   C     0.15241   0.76695   0.15510   1.00000  Uiso   1.00
C037   C     0.05252   0.93315   0.15578   1.00000  Uiso   1.00
C038   C     0.25158   0.71123   0.15508   1.00000  Uiso   1.00
C039   C     0.35297   0.76373   0.15663   1.00000  Uiso   1.00
C040   C     0.35394   0.87643   0.15709   1.00000  Uiso   1.00
C041   C     0.25381   0.93267   0.15638   1.00000  Uiso   1.00
C042   C     0.45095   0.70314   0.15822   1.00000  Uiso   1.00
C043   C     0.55251   0.75819   0.15943   1.00000  Uiso   1.00
C044   C     0.55251   0.87301   0.15867   1.00000  Uiso   1.00
C045   C     0.45401   0.93188   0.15790   1.00000  Uiso   1.00
C046   C     0.65419   0.70317   0.15865   1.00000  Uiso   1.00
C047   C     0.75214   0.76378   0.15680   1.00000  Uiso   1.00
C048   C     0.75111   0.87646   0.15707   1.00000  Uiso   1.00
C049   C     0.65102   0.93189   0.15789   1.00000  Uiso   1.00
C050   C     0.85350   0.71126   0.15523   1.00000  Uiso   1.00
C051   C     0.95267   0.76697   0.15515   1.00000  Uiso   1.00
C052   C     0.85121   0.93269   0.15632   1.00000  Uiso   1.00
C053   C     0.15299   0.87835   0.15592   1.00000  Uiso   1.00
C054   C     0.95205   0.87836   0.15590   1.00000  Uiso   1.00
N001   N     0.44555   0.38346   0.15796   1.00000  Uiso   1.00
N002   N     0.44579   0.59387   0.15758   1.00000  Uiso   1.00
N003   N     0.65929   0.38355   0.15699   1.00000  Uiso   1.00
N004   N     0.65934   0.59401   0.15860   1.00000  Uiso   1.00
N005   N     0.55136   0.49487   0.26186   1.00000  Uiso   1.00
H001   H     0.61652   0.52079   0.28807   1.00000  Uiso   1.00
H002   H     0.48188   0.50882   0.28747   1.00000  Uiso   1.00
Fe001  Fe    0.55244   0.48960   0.17188   1.00000  Uiso   1.00
loop_
_geom_bond_atom_site_label_1
_geom_bond_atom_site_label_2
_geom_bond_distance
_geom_bond_site_symmetry_2
_ccdc_geom_bond_type
C001   C002    1.435   .     D
C001   C018    1.435   1_455 S
C001   C037    1.416   1_545 S
C002   C003    1.419   .     S
C002   C005    1.436   .     S
C003   C004    1.430   .     D
C003   C008    1.427   .     S
C004   C019    1.431   1_455 S
C004   C021    1.420   .     S
C005   C006    1.440   .     S
C005   C041    1.428   1_545 D
C006   C007    1.435   .     S
C006   C009    1.435   .     D
C007   C008    1.431   .     S
C007   C012    1.446   .     D
C008   C025    1.418   .     D
C009   C010    1.440   .     S
C009   C045    1.449   1_545 S
C010   C011    1.463   .     D
C010   C013    1.440   .     S
C011   C012    1.449   .     S
C011   C016    1.448   .     S
C012   N001    1.391   .     S
C013   C014    1.435   .     D
C013   C049    1.449   1_545 S
C014   C015    1.436   .     S
C014   C017    1.440   .     S
C015   C016    1.447   .     S
C015   C020    1.431   .     D
C016   N003    1.392   .     D
C017   C018    1.436   .     S
C017   C052    1.428   1_545 D
C018   C001    1.435   1_655 S
C018   C019    1.419   .     D
C019   C004    1.431   1_655 S
C019   C020    1.427   .     S
C020   C031    1.419   .     S
C021   C022    1.419   .     D
C021   C032    1.420   1_455 S
C022   C023    1.417   .     S
C022   C025    1.422   .     S
C023   C024    1.419   .     D
C023   C028    1.422   .     S
C024   C033    1.419   1_455 S
C024   C035    1.420   .     S
C025   C026    1.409   .     S
C026   C027    1.425   .     S
C026   N001    1.378   .     D
C027   C028    1.409   .     S
C027   N002    1.380   .     D
C028   C038    1.418   .     D
C029   C030    1.425   .     S
C029   C031    1.409   .     D
C029   N003    1.378   .     S
C030   C034    1.409   .     S
C030   N004    1.380   .     D
C031   C032    1.422   .     S
C032   C021    1.420   1_655 S
C032   C033    1.417   .     D
C033   C024    1.419   1_655 S
C033   C034    1.422   .     S
C034   C050    1.418   .     D
C035   C036    1.430   .     S
C035   C051    1.430   1_455 D
C036   C038    1.426   .     S
C036   C053    1.419   .     D
C037   C001    1.416   1_565 S
C037   C053    1.435   .     S
C037   C054    1.435   1_455 D
C038   C039    1.431   .     S
C039   C040    1.436   .     S
C039   C042    1.446   .     D
C040   C041    1.440   .     S
C040   C045    1.435   .     D
C041   C005    1.428   1_565 D
C041   C053    1.436   .     S
C042   C043    1.448   .     S
C042   N002    1.394   .     S
C043   C044    1.463   .     S
C043   C046    1.449   .     D
C044   C045    1.440   .     S
C044   C049    1.440   .     D
C045   C009    1.449   1_565 S
C046   C047    1.446   .     S
C046   N004    1.392   .     S
C047   C048    1.435   .     D
C047   C050    1.431   .     S
C048   C049    1.435   .     S
C048   C052    1.440   .     S
C049   C013    1.449   1_565 S
C050   C051    1.426   .     S
C051   C035    1.430   1_655 D
C051   C054    1.419   .     S
C052   C017    1.428   1_565 D
C052   C054    1.436   .     S
C054   C037    1.435   1_655 D
N001   Fe001   1.919   .     S
N002   Fe001   1.902   .     S
N003   Fe001   1.921   .     S
N004   Fe001   1.902   .     S
N005   H001    1.022   .     S
N005   H002    1.022   .     S
N005   Fe001   1.800   .     S
