data_e+0.6-opt
_audit_creation_date              2024-12-22
_audit_creation_method            'Materials Studio'
_symmetry_space_group_name_H-M    'P1'
_symmetry_Int_Tables_number       1
_symmetry_cell_setting            triclinic
loop_
_symmetry_equiv_pos_as_xyz
  x,y,z
_cell_length_a                    12.4761
_cell_length_b                    12.7392
_cell_length_c                    19.9921
_cell_angle_alpha                 90.0000
_cell_angle_beta                  90.0000
_cell_angle_gamma                 90.0000
loop_
_atom_site_label
_atom_site_type_symbol
_atom_site_fract_x
_atom_site_fract_y
_atom_site_fract_z
_atom_site_U_iso_or_equiv
_atom_site_adp_type
_atom_site_occupancy
C001   C     0.05250   0.04440   0.15521   1.00000  Uiso   1.00
C002   C     0.15293   0.09914   0.15485   1.00000  Uiso   1.00
C003   C     0.15233   0.21053   0.15345   1.00000  Uiso   1.00
C004   C     0.05249   0.26558   0.15241   1.00000  Uiso   1.00
C005   C     0.25379   0.04480   0.15589   1.00000  Uiso   1.00
C006   C     0.35391   0.10100   0.15616   1.00000  Uiso   1.00
C007   C     0.35291   0.21376   0.15529   1.00000  Uiso   1.00
C008   C     0.25155   0.26625   0.15363   1.00000  Uiso   1.00
C009   C     0.45395   0.04565   0.15743   1.00000  Uiso   1.00
C010   C     0.55251   0.10466   0.15767   1.00000  Uiso   1.00
C011   C     0.55251   0.21930   0.15789   1.00000  Uiso   1.00
C012   C     0.45076   0.27441   0.15706   1.00000  Uiso   1.00
C013   C     0.65106   0.04564   0.15733   1.00000  Uiso   1.00
C014   C     0.75108   0.10099   0.15595   1.00000  Uiso   1.00
C015   C     0.75206   0.21375   0.15491   1.00000  Uiso   1.00
C016   C     0.65421   0.27441   0.15661   1.00000  Uiso   1.00
C017   C     0.85120   0.04480   0.15574   1.00000  Uiso   1.00
C018   C     0.95206   0.09914   0.15472   1.00000  Uiso   1.00
C019   C     0.95263   0.21053   0.15326   1.00000  Uiso   1.00
C020   C     0.85341   0.26625   0.15324   1.00000  Uiso   1.00
C021   C     0.05249   0.37717   0.15143   1.00000  Uiso   1.00
C022   C     0.15072   0.43322   0.15175   1.00000  Uiso   1.00
C023   C     0.15080   0.54438   0.15238   1.00000  Uiso   1.00
C024   C     0.05252   0.60042   0.15269   1.00000  Uiso   1.00
C025   C     0.24966   0.37754   0.15283   1.00000  Uiso   1.00
C026   C     0.34733   0.43263   0.15475   1.00000  Uiso   1.00
C027   C     0.34741   0.54468   0.15530   1.00000  Uiso   1.00
C028   C     0.24983   0.59995   0.15396   1.00000  Uiso   1.00
C029   C     0.75762   0.43266   0.15430   1.00000  Uiso   1.00
C030   C     0.75762   0.54472   0.15538   1.00000  Uiso   1.00
C031   C     0.85529   0.37757   0.15248   1.00000  Uiso   1.00
C032   C     0.95426   0.43323   0.15161   1.00000  Uiso   1.00
C033   C     0.95423   0.54439   0.15229   1.00000  Uiso   1.00
C034   C     0.85521   0.59996   0.15394   1.00000  Uiso   1.00
C035   C     0.05252   0.71198   0.15436   1.00000  Uiso   1.00
C036   C     0.15237   0.76697   0.15528   1.00000  Uiso   1.00
C037   C     0.05251   0.93313   0.15588   1.00000  Uiso   1.00
C038   C     0.25160   0.71124   0.15532   1.00000  Uiso   1.00
C039   C     0.35299   0.76365   0.15682   1.00000  Uiso   1.00
C040   C     0.35396   0.87647   0.15718   1.00000  Uiso   1.00
C041   C     0.25382   0.93270   0.15647   1.00000  Uiso   1.00
C042   C     0.45090   0.70307   0.15855   1.00000  Uiso   1.00
C043   C     0.55251   0.75825   0.15960   1.00000  Uiso   1.00
C044   C     0.55251   0.87292   0.15869   1.00000  Uiso   1.00
C045   C     0.45395   0.93190   0.15793   1.00000  Uiso   1.00
C046   C     0.65419   0.70309   0.15883   1.00000  Uiso   1.00
C047   C     0.75208   0.76368   0.15693   1.00000  Uiso   1.00
C048   C     0.75107   0.87647   0.15714   1.00000  Uiso   1.00
C049   C     0.65107   0.93189   0.15789   1.00000  Uiso   1.00
C050   C     0.85345   0.71124   0.15540   1.00000  Uiso   1.00
C051   C     0.95268   0.76697   0.15530   1.00000  Uiso   1.00
C052   C     0.85121   0.93270   0.15639   1.00000  Uiso   1.00
C053   C     0.15295   0.87840   0.15603   1.00000  Uiso   1.00
C054   C     0.95208   0.87839   0.15601   1.00000  Uiso   1.00
N001   N     0.44542   0.38333   0.15765   1.00000  Uiso   1.00
N002   N     0.44595   0.59376   0.15866   1.00000  Uiso   1.00
N003   N     0.65954   0.38333   0.15683   1.00000  Uiso   1.00
N004   N     0.65914   0.59385   0.15928   1.00000  Uiso   1.00
N005   N     0.55197   0.48646   0.26365   1.00000  Uiso   1.00
H001   H     0.61493   0.52519   0.28546   1.00000  Uiso   1.00
H002   H     0.48244   0.51355   0.28486   1.00000  Uiso   1.00
Fe001  Fe    0.55247   0.48907   0.17074   1.00000  Uiso   1.00
loop_
_geom_bond_atom_site_label_1
_geom_bond_atom_site_label_2
_geom_bond_distance
_geom_bond_site_symmetry_2
_ccdc_geom_bond_type
C001   C002    1.434   .     D
C001   C018    1.434   1_455 S
C001   C037    1.418   1_545 S
C002   C003    1.419   .     S
C002   C005    1.436   .     S
C003   C004    1.430   .     D
C003   C008    1.427   .     S
C004   C019    1.430   1_455 S
C004   C021    1.422   .     S
C005   C006    1.440   .     S
C005   C041    1.428   1_545 D
C006   C007    1.437   .     S
C006   C009    1.434   .     D
C007   C008    1.431   .     S
C007   C012    1.445   .     D
C008   C025    1.418   .     D
C009   C010    1.441   .     S
C009   C045    1.449   1_545 S
C010   C011    1.460   .     D
C010   C013    1.441   .     S
C011   C012    1.451   .     S
C011   C016    1.450   .     S
C012   N001    1.389   .     S
C013   C014    1.434   .     D
C013   C049    1.449   1_545 S
C014   C015    1.437   .     S
C014   C017    1.440   .     S
C015   C016    1.445   .     S
C015   C020    1.431   .     D
C016   N003    1.389   .     D
C017   C018    1.436   .     S
C017   C052    1.428   1_545 D
C018   C001    1.434   1_655 S
C018   C019    1.419   .     D
C019   C004    1.430   1_655 S
C019   C020    1.427   .     S
C020   C031    1.418   .     S
C021   C022    1.418   .     D
C021   C032    1.418   1_455 S
C022   C023    1.416   .     S
C022   C025    1.424   .     S
C023   C024    1.419   .     D
C023   C028    1.424   .     S
C024   C033    1.419   1_455 S
C024   C035    1.422   .     S
C025   C026    1.407   .     S
C026   C027    1.427   .     S
C026   N001    1.377   .     D
C027   C028    1.407   .     S
C027   N002    1.381   .     D
C028   C038    1.418   .     D
C029   C030    1.428   .     S
C029   C031    1.407   .     D
C029   N003    1.377   .     S
C030   C034    1.407   .     S
C030   N004    1.381   .     D
C031   C032    1.424   .     S
C032   C021    1.418   1_655 S
C032   C033    1.416   .     D
C033   C024    1.419   1_655 S
C033   C034    1.424   .     S
C034   C050    1.418   .     D
C035   C036    1.429   .     S
C035   C051    1.429   1_455 D
C036   C038    1.427   .     S
C036   C053    1.420   .     D
C037   C001    1.418   1_565 S
C037   C053    1.434   .     S
C037   C054    1.434   1_455 D
C038   C039    1.431   .     S
C039   C040    1.437   .     S
C039   C042    1.445   .     D
C040   C041    1.440   .     S
C040   C045    1.433   .     D
C041   C005    1.428   1_565 D
C041   C053    1.436   .     S
C042   C043    1.450   .     S
C042   N002    1.394   .     S
C043   C044    1.461   .     S
C043   C046    1.450   .     D
C044   C045    1.441   .     S
C044   C049    1.441   .     D
C045   C009    1.449   1_565 S
C046   C047    1.445   .     S
C046   N004    1.393   .     S
C047   C048    1.437   .     D
C047   C050    1.431   .     S
C048   C049    1.434   .     S
C048   C052    1.440   .     S
C049   C013    1.449   1_565 S
C050   C051    1.427   .     S
C051   C035    1.429   1_655 D
C051   C054    1.419   .     S
C052   C017    1.428   1_565 D
C052   C054    1.436   .     S
C054   C037    1.434   1_655 D
N001   Fe001   1.915   .     S
N002   Fe001   1.898   .     S
N003   Fe001   1.917   .     S
N004   Fe001   1.899   .     S
N005   H001    1.025   .     S
N005   H002    1.025   .     S
N005   Fe001   1.858   .     S
