data_e-0.8-opt
_audit_creation_date              2024-12-22
_audit_creation_method            'Materials Studio'
_symmetry_space_group_name_H-M    'P1'
_symmetry_Int_Tables_number       1
_symmetry_cell_setting            triclinic
loop_
_symmetry_equiv_pos_as_xyz
  x,y,z
_cell_length_a                    12.4761
_cell_length_b                    12.7392
_cell_length_c                    19.9921
_cell_angle_alpha                 90.0000
_cell_angle_beta                  90.0000
_cell_angle_gamma                 90.0000
loop_
_atom_site_label
_atom_site_type_symbol
_atom_site_fract_x
_atom_site_fract_y
_atom_site_fract_z
_atom_site_U_iso_or_equiv
_atom_site_adp_type
_atom_site_occupancy
C001   C     0.05247   0.04443   0.15509   1.00000  Uiso   1.00
C002   C     0.15294   0.09920   0.15477   1.00000  Uiso   1.00
C003   C     0.15231   0.21057   0.15341   1.00000  Uiso   1.00
C004   C     0.05244   0.26566   0.15229   1.00000  Uiso   1.00
C005   C     0.25379   0.04488   0.15578   1.00000  Uiso   1.00
C006   C     0.35391   0.10110   0.15620   1.00000  Uiso   1.00
C007   C     0.35291   0.21385   0.15555   1.00000  Uiso   1.00
C008   C     0.25153   0.26630   0.15371   1.00000  Uiso   1.00
C009   C     0.45397   0.04572   0.15748   1.00000  Uiso   1.00
C010   C     0.55248   0.10459   0.15792   1.00000  Uiso   1.00
C011   C     0.55246   0.21944   0.15848   1.00000  Uiso   1.00
C012   C     0.45082   0.27447   0.15785   1.00000  Uiso   1.00
C013   C     0.65099   0.04573   0.15739   1.00000  Uiso   1.00
C014   C     0.75102   0.10113   0.15602   1.00000  Uiso   1.00
C015   C     0.75194   0.21389   0.15518   1.00000  Uiso   1.00
C016   C     0.65399   0.27450   0.15731   1.00000  Uiso   1.00
C017   C     0.85115   0.04491   0.15565   1.00000  Uiso   1.00
C018   C     0.95199   0.09922   0.15466   1.00000  Uiso   1.00
C019   C     0.95254   0.21060   0.15322   1.00000  Uiso   1.00
C020   C     0.85333   0.26634   0.15333   1.00000  Uiso   1.00
C021   C     0.05244   0.37715   0.15123   1.00000  Uiso   1.00
C022   C     0.15079   0.43318   0.15142   1.00000  Uiso   1.00
C023   C     0.15081   0.54444   0.15193   1.00000  Uiso   1.00
C024   C     0.05252   0.60050   0.15231   1.00000  Uiso   1.00
C025   C     0.24960   0.37757   0.15267   1.00000  Uiso   1.00
C026   C     0.34743   0.43281   0.15463   1.00000  Uiso   1.00
C027   C     0.34743   0.54468   0.15441   1.00000  Uiso   1.00
C028   C     0.24967   0.60003   0.15324   1.00000  Uiso   1.00
C029   C     0.75744   0.43294   0.15424   1.00000  Uiso   1.00
C030   C     0.75761   0.54480   0.15480   1.00000  Uiso   1.00
C031   C     0.85525   0.37766   0.15239   1.00000  Uiso   1.00
C032   C     0.95413   0.43322   0.15134   1.00000  Uiso   1.00
C033   C     0.95420   0.54448   0.15189   1.00000  Uiso   1.00
C034   C     0.85539   0.60009   0.15340   1.00000  Uiso   1.00
C035   C     0.05253   0.71197   0.15394   1.00000  Uiso   1.00
C036   C     0.15240   0.76704   0.15484   1.00000  Uiso   1.00
C037   C     0.05251   0.93322   0.15567   1.00000  Uiso   1.00
C038   C     0.25158   0.71130   0.15468   1.00000  Uiso   1.00
C039   C     0.35296   0.76379   0.15624   1.00000  Uiso   1.00
C040   C     0.35394   0.87655   0.15685   1.00000  Uiso   1.00
C041   C     0.25381   0.93276   0.15623   1.00000  Uiso   1.00
C042   C     0.45094   0.70327   0.15786   1.00000  Uiso   1.00
C043   C     0.55251   0.75828   0.15917   1.00000  Uiso   1.00
C044   C     0.55250   0.87310   0.15850   1.00000  Uiso   1.00
C045   C     0.45397   0.93194   0.15777   1.00000  Uiso   1.00
C046   C     0.65421   0.70332   0.15842   1.00000  Uiso   1.00
C047   C     0.75214   0.76385   0.15652   1.00000  Uiso   1.00
C048   C     0.75110   0.87658   0.15689   1.00000  Uiso   1.00
C049   C     0.65103   0.93195   0.15778   1.00000  Uiso   1.00
C050   C     0.85349   0.71134   0.15493   1.00000  Uiso   1.00
C051   C     0.95269   0.76706   0.15493   1.00000  Uiso   1.00
C052   C     0.85121   0.93280   0.15619   1.00000  Uiso   1.00
C053   C     0.15298   0.87843   0.15575   1.00000  Uiso   1.00
C054   C     0.95205   0.87845   0.15575   1.00000  Uiso   1.00
N001   N     0.44558   0.38367   0.15853   1.00000  Uiso   1.00
N002   N     0.44575   0.59393   0.15725   1.00000  Uiso   1.00
N003   N     0.65918   0.38380   0.15747   1.00000  Uiso   1.00
N004   N     0.65940   0.59411   0.15853   1.00000  Uiso   1.00
N005   N     0.55121   0.49718   0.26239   1.00000  Uiso   1.00
H001   H     0.61719   0.51677   0.29004   1.00000  Uiso   1.00
H002   H     0.48211   0.50476   0.28950   1.00000  Uiso   1.00
Fe001  Fe    0.55243   0.48991   0.17315   1.00000  Uiso   1.00
loop_
_geom_bond_atom_site_label_1
_geom_bond_atom_site_label_2
_geom_bond_distance
_geom_bond_site_symmetry_2
_ccdc_geom_bond_type
C001   C002    1.435   .     D
C001   C018    1.435   1_455 S
C001   C037    1.417   1_545 S
C002   C003    1.419   .     S
C002   C005    1.436   .     S
C003   C004    1.430   .     D
C003   C008    1.427   .     S
C004   C019    1.430   1_455 S
C004   C021    1.420   .     S
C005   C006    1.440   .     S
C005   C041    1.428   1_545 D
C006   C007    1.436   .     S
C006   C009    1.434   .     D
C007   C008    1.431   .     S
C007   C012    1.446   .     D
C008   C025    1.418   .     D
C009   C010    1.440   .     S
C009   C045    1.450   1_545 S
C010   C011    1.463   .     D
C010   C013    1.440   .     S
C011   C012    1.449   .     S
C011   C016    1.448   .     S
C012   N001    1.393   .     S
C013   C014    1.434   .     D
C013   C049    1.449   1_545 S
C014   C015    1.437   .     S
C014   C017    1.440   .     S
C015   C016    1.446   .     S
C015   C020    1.431   .     D
C016   N003    1.394   .     D
C017   C018    1.436   .     S
C017   C052    1.428   1_545 D
C018   C001    1.435   1_655 S
C018   C019    1.419   .     D
C019   C004    1.430   1_655 S
C019   C020    1.427   .     S
C020   C031    1.418   .     S
C021   C022    1.420   .     D
C021   C032    1.419   1_455 S
C022   C023    1.417   .     S
C022   C025    1.422   .     S
C023   C024    1.419   .     D
C023   C028    1.422   .     S
C024   C033    1.419   1_455 S
C024   C035    1.420   .     S
C025   C026    1.409   .     S
C026   C027    1.425   .     S
C026   N001    1.378   .     D
C027   C028    1.409   .     S
C027   N002    1.379   .     D
C028   C038    1.418   .     D
C029   C030    1.425   .     S
C029   C031    1.409   .     D
C029   N003    1.378   .     S
C030   C034    1.409   .     S
C030   N004    1.379   .     D
C031   C032    1.422   .     S
C032   C021    1.419   1_655 S
C032   C033    1.417   .     D
C033   C024    1.419   1_655 S
C033   C034    1.422   .     S
C034   C050    1.418   .     D
C035   C036    1.430   .     S
C035   C051    1.430   1_455 D
C036   C038    1.427   .     S
C036   C053    1.419   .     D
C037   C001    1.417   1_565 S
C037   C053    1.435   .     S
C037   C054    1.435   1_455 D
C038   C039    1.431   .     S
C039   C040    1.437   .     S
C039   C042    1.446   .     D
C040   C041    1.440   .     S
C040   C045    1.434   .     D
C041   C005    1.428   1_565 D
C041   C053    1.436   .     S
C042   C043    1.448   .     S
C042   N002    1.394   .     S
C043   C044    1.463   .     S
C043   C046    1.449   .     D
C044   C045    1.440   .     S
C044   C049    1.440   .     D
C045   C009    1.450   1_565 S
C046   C047    1.445   .     S
C046   N004    1.393   .     S
C047   C048    1.436   .     D
C047   C050    1.431   .     S
C048   C049    1.434   .     S
C048   C052    1.440   .     S
C049   C013    1.449   1_565 S
C050   C051    1.427   .     S
C051   C035    1.430   1_655 D
C051   C054    1.419   .     S
C052   C017    1.428   1_565 D
C052   C054    1.436   .     S
C054   C037    1.435   1_655 D
N001   Fe001   1.922   .     S
N002   Fe001   1.905   .     S
N003   Fe001   1.923   .     S
N004   Fe001   1.905   .     S
N005   H001    1.023   .     S
N005   H002    1.023   .     S
N005   Fe001   1.786   .     S
