data_e-0.4-opt
_audit_creation_date              2024-12-22
_audit_creation_method            'Materials Studio'
_symmetry_space_group_name_H-M    'P1'
_symmetry_Int_Tables_number       1
_symmetry_cell_setting            triclinic
loop_
_symmetry_equiv_pos_as_xyz
  x,y,z
_cell_length_a                    12.4761
_cell_length_b                    12.7392
_cell_length_c                    19.9921
_cell_angle_alpha                 90.0000
_cell_angle_beta                  90.0000
_cell_angle_gamma                 90.0000
loop_
_atom_site_label
_atom_site_type_symbol
_atom_site_fract_x
_atom_site_fract_y
_atom_site_fract_z
_atom_site_U_iso_or_equiv
_atom_site_adp_type
_atom_site_occupancy
C001   C     0.05249   0.04432   0.15518   1.00000  Uiso   1.00
C002   C     0.15298   0.09912   0.15482   1.00000  Uiso   1.00
C003   C     0.15237   0.21051   0.15343   1.00000  Uiso   1.00
C004   C     0.05248   0.26564   0.15237   1.00000  Uiso   1.00
C005   C     0.25380   0.04480   0.15586   1.00000  Uiso   1.00
C006   C     0.35391   0.10104   0.15616   1.00000  Uiso   1.00
C007   C     0.35292   0.21366   0.15535   1.00000  Uiso   1.00
C008   C     0.25152   0.26621   0.15366   1.00000  Uiso   1.00
C009   C     0.45402   0.04558   0.15743   1.00000  Uiso   1.00
C010   C     0.55250   0.10450   0.15771   1.00000  Uiso   1.00
C011   C     0.55250   0.21932   0.15798   1.00000  Uiso   1.00
C012   C     0.45083   0.27439   0.15726   1.00000  Uiso   1.00
C013   C     0.65098   0.04557   0.15733   1.00000  Uiso   1.00
C014   C     0.75108   0.10105   0.15597   1.00000  Uiso   1.00
C015   C     0.75202   0.21368   0.15499   1.00000  Uiso   1.00
C016   C     0.65408   0.27440   0.15678   1.00000  Uiso   1.00
C017   C     0.85119   0.04482   0.15571   1.00000  Uiso   1.00
C018   C     0.95200   0.09914   0.15471   1.00000  Uiso   1.00
C019   C     0.95257   0.21052   0.15324   1.00000  Uiso   1.00
C020   C     0.85342   0.26623   0.15328   1.00000  Uiso   1.00
C021   C     0.05248   0.37703   0.15142   1.00000  Uiso   1.00
C022   C     0.15079   0.43313   0.15173   1.00000  Uiso   1.00
C023   C     0.15083   0.54438   0.15234   1.00000  Uiso   1.00
C024   C     0.05252   0.60050   0.15263   1.00000  Uiso   1.00
C025   C     0.24959   0.37754   0.15287   1.00000  Uiso   1.00
C026   C     0.34736   0.43273   0.15482   1.00000  Uiso   1.00
C027   C     0.34740   0.54455   0.15522   1.00000  Uiso   1.00
C028   C     0.24970   0.59989   0.15392   1.00000  Uiso   1.00
C029   C     0.75757   0.43281   0.15437   1.00000  Uiso   1.00
C030   C     0.75764   0.54462   0.15535   1.00000  Uiso   1.00
C031   C     0.85533   0.37760   0.15252   1.00000  Uiso   1.00
C032   C     0.95417   0.43316   0.15159   1.00000  Uiso   1.00
C033   C     0.95420   0.54440   0.15225   1.00000  Uiso   1.00
C034   C     0.85535   0.59992   0.15393   1.00000  Uiso   1.00
C035   C     0.05253   0.71185   0.15425   1.00000  Uiso   1.00
C036   C     0.15243   0.76693   0.15519   1.00000  Uiso   1.00
C037   C     0.05252   0.93316   0.15583   1.00000  Uiso   1.00
C038   C     0.25157   0.71123   0.15524   1.00000  Uiso   1.00
C039   C     0.35299   0.76374   0.15679   1.00000  Uiso   1.00
C040   C     0.35395   0.87639   0.15714   1.00000  Uiso   1.00
C041   C     0.25382   0.93265   0.15643   1.00000  Uiso   1.00
C042   C     0.45097   0.70308   0.15851   1.00000  Uiso   1.00
C043   C     0.55251   0.75818   0.15958   1.00000  Uiso   1.00
C044   C     0.55251   0.87301   0.15871   1.00000  Uiso   1.00
C045   C     0.45403   0.93190   0.15792   1.00000  Uiso   1.00
C046   C     0.65417   0.70310   0.15885   1.00000  Uiso   1.00
C047   C     0.75211   0.76378   0.15692   1.00000  Uiso   1.00
C048   C     0.75110   0.87642   0.15711   1.00000  Uiso   1.00
C049   C     0.65100   0.93190   0.15789   1.00000  Uiso   1.00
C050   C     0.85350   0.71125   0.15535   1.00000  Uiso   1.00
C051   C     0.95264   0.76695   0.15522   1.00000  Uiso   1.00
C052   C     0.85121   0.93266   0.15635   1.00000  Uiso   1.00
C053   C     0.15301   0.87834   0.15598   1.00000  Uiso   1.00
C054   C     0.95203   0.87835   0.15596   1.00000  Uiso   1.00
N001   N     0.44555   0.38334   0.15774   1.00000  Uiso   1.00
N002   N     0.44589   0.59383   0.15812   1.00000  Uiso   1.00
N003   N     0.65935   0.38341   0.15685   1.00000  Uiso   1.00
N004   N     0.65922   0.59396   0.15893   1.00000  Uiso   1.00
N005   N     0.55162   0.49139   0.26210   1.00000  Uiso   1.00
H001   H     0.61585   0.52314   0.28660   1.00000  Uiso   1.00
H002   H     0.48201   0.51126   0.28600   1.00000  Uiso   1.00
Fe001  Fe    0.55245   0.48925   0.17120   1.00000  Uiso   1.00
loop_
_geom_bond_atom_site_label_1
_geom_bond_atom_site_label_2
_geom_bond_distance
_geom_bond_site_symmetry_2
_ccdc_geom_bond_type
C001   C002    1.435   .     D
C001   C018    1.435   1_455 S
C001   C037    1.416   1_545 S
C002   C003    1.419   .     S
C002   C005    1.436   .     S
C003   C004    1.431   .     D
C003   C008    1.426   .     S
C004   C019    1.431   1_455 S
C004   C021    1.419   .     S
C005   C006    1.440   .     S
C005   C041    1.429   1_545 D
C006   C007    1.435   .     S
C006   C009    1.435   .     D
C007   C008    1.432   .     S
C007   C012    1.446   .     D
C008   C025    1.419   .     D
C009   C010    1.440   .     S
C009   C045    1.448   1_545 S
C010   C011    1.463   .     D
C010   C013    1.440   .     S
C011   C012    1.450   .     S
C011   C016    1.449   .     S
C012   N001    1.390   .     S
C013   C014    1.435   .     D
C013   C049    1.448   1_545 S
C014   C015    1.435   .     S
C014   C017    1.440   .     S
C015   C016    1.447   .     S
C015   C020    1.432   .     D
C016   N003    1.390   .     D
C017   C018    1.436   .     S
C017   C052    1.429   1_545 D
C018   C001    1.435   1_655 S
C018   C019    1.419   .     D
C019   C004    1.431   1_655 S
C019   C020    1.426   .     S
C020   C031    1.419   .     S
C021   C022    1.420   .     D
C021   C032    1.420   1_455 S
C022   C023    1.417   .     S
C022   C025    1.422   .     S
C023   C024    1.420   .     D
C023   C028    1.422   .     S
C024   C033    1.420   1_455 S
C024   C035    1.419   .     S
C025   C026    1.408   .     S
C026   C027    1.424   .     S
C026   N001    1.378   .     D
C027   C028    1.408   .     S
C027   N002    1.381   .     D
C028   C038    1.419   .     D
C029   C030    1.425   .     S
C029   C031    1.408   .     D
C029   N003    1.378   .     S
C030   C034    1.408   .     S
C030   N004    1.381   .     D
C031   C032    1.422   .     S
C032   C021    1.420   1_655 S
C032   C033    1.417   .     D
C033   C024    1.420   1_655 S
C033   C034    1.422   .     S
C034   C050    1.419   .     D
C035   C036    1.431   .     S
C035   C051    1.431   1_455 D
C036   C038    1.426   .     S
C036   C053    1.419   .     D
C037   C001    1.416   1_565 S
C037   C053    1.435   .     S
C037   C054    1.435   1_455 D
C038   C039    1.432   .     S
C039   C040    1.435   .     S
C039   C042    1.447   .     D
C040   C041    1.440   .     S
C040   C045    1.435   .     D
C041   C005    1.429   1_565 D
C041   C053    1.435   .     S
C042   C043    1.449   .     S
C042   N002    1.393   .     S
C043   C044    1.463   .     S
C043   C046    1.449   .     D
C044   C045    1.440   .     S
C044   C049    1.440   .     D
C045   C009    1.448   1_565 S
C046   C047    1.446   .     S
C046   N004    1.392   .     S
C047   C048    1.435   .     D
C047   C050    1.431   .     S
C048   C049    1.435   .     S
C048   C052    1.440   .     S
C049   C013    1.448   1_565 S
C050   C051    1.426   .     S
C051   C035    1.431   1_655 D
C051   C054    1.419   .     S
C052   C017    1.429   1_565 D
C052   C054    1.436   .     S
C054   C037    1.435   1_655 D
N001   Fe001   1.916   .     S
N002   Fe001   1.900   .     S
N003   Fe001   1.918   .     S
N004   Fe001   1.901   .     S
N005   H001    1.023   .     S
N005   H002    1.023   .     S
N005   Fe001   1.818   .     S
