data_e-1.0-opt
_audit_creation_date              2024-12-22
_audit_creation_method            'Materials Studio'
_symmetry_space_group_name_H-M    'P1'
_symmetry_Int_Tables_number       1
_symmetry_cell_setting            triclinic
loop_
_symmetry_equiv_pos_as_xyz
  x,y,z
_cell_length_a                    12.4761
_cell_length_b                    12.7392
_cell_length_c                    19.9921
_cell_angle_alpha                 90.0000
_cell_angle_beta                  90.0000
_cell_angle_gamma                 90.0000
loop_
_atom_site_label
_atom_site_type_symbol
_atom_site_fract_x
_atom_site_fract_y
_atom_site_fract_z
_atom_site_U_iso_or_equiv
_atom_site_adp_type
_atom_site_occupancy
C001   C     0.05245   0.04455   0.15497   1.00000  Uiso   1.00
C002   C     0.15291   0.09931   0.15468   1.00000  Uiso   1.00
C003   C     0.15228   0.21068   0.15331   1.00000  Uiso   1.00
C004   C     0.05242   0.26577   0.15211   1.00000  Uiso   1.00
C005   C     0.25377   0.04498   0.15566   1.00000  Uiso   1.00
C006   C     0.35390   0.10120   0.15619   1.00000  Uiso   1.00
C007   C     0.35289   0.21397   0.15569   1.00000  Uiso   1.00
C008   C     0.25152   0.26642   0.15369   1.00000  Uiso   1.00
C009   C     0.45393   0.04583   0.15746   1.00000  Uiso   1.00
C010   C     0.55246   0.10470   0.15806   1.00000  Uiso   1.00
C011   C     0.55244   0.21951   0.15889   1.00000  Uiso   1.00
C012   C     0.45080   0.27457   0.15832   1.00000  Uiso   1.00
C013   C     0.65100   0.04585   0.15737   1.00000  Uiso   1.00
C014   C     0.75099   0.10125   0.15601   1.00000  Uiso   1.00
C015   C     0.75190   0.21404   0.15529   1.00000  Uiso   1.00
C016   C     0.65392   0.27462   0.15770   1.00000  Uiso   1.00
C017   C     0.85114   0.04502   0.15554   1.00000  Uiso   1.00
C018   C     0.95198   0.09934   0.15457   1.00000  Uiso   1.00
C019   C     0.95252   0.21072   0.15311   1.00000  Uiso   1.00
C020   C     0.85328   0.26648   0.15329   1.00000  Uiso   1.00
C021   C     0.05242   0.37727   0.15090   1.00000  Uiso   1.00
C022   C     0.15079   0.43329   0.15103   1.00000  Uiso   1.00
C023   C     0.15083   0.54453   0.15145   1.00000  Uiso   1.00
C024   C     0.05252   0.60060   0.15182   1.00000  Uiso   1.00
C025   C     0.24963   0.37766   0.15250   1.00000  Uiso   1.00
C026   C     0.34748   0.43291   0.15466   1.00000  Uiso   1.00
C027   C     0.34749   0.54478   0.15420   1.00000  Uiso   1.00
C028   C     0.24973   0.60013   0.15279   1.00000  Uiso   1.00
C029   C     0.75734   0.43308   0.15427   1.00000  Uiso   1.00
C030   C     0.75754   0.54495   0.15472   1.00000  Uiso   1.00
C031   C     0.85516   0.37777   0.15225   1.00000  Uiso   1.00
C032   C     0.95408   0.43334   0.15099   1.00000  Uiso   1.00
C033   C     0.95417   0.54458   0.15145   1.00000  Uiso   1.00
C034   C     0.85535   0.60022   0.15304   1.00000  Uiso   1.00
C035   C     0.05253   0.71207   0.15352   1.00000  Uiso   1.00
C036   C     0.15240   0.76714   0.15445   1.00000  Uiso   1.00
C037   C     0.05250   0.93332   0.15547   1.00000  Uiso   1.00
C038   C     0.25160   0.71139   0.15426   1.00000  Uiso   1.00
C039   C     0.35298   0.76387   0.15593   1.00000  Uiso   1.00
C040   C     0.35393   0.87665   0.15657   1.00000  Uiso   1.00
C041   C     0.25380   0.93287   0.15599   1.00000  Uiso   1.00
C042   C     0.45097   0.70339   0.15777   1.00000  Uiso   1.00
C043   C     0.55251   0.75843   0.15913   1.00000  Uiso   1.00
C044   C     0.55249   0.87321   0.15835   1.00000  Uiso   1.00
C045   C     0.45394   0.93204   0.15760   1.00000  Uiso   1.00
C046   C     0.65421   0.70347   0.15846   1.00000  Uiso   1.00
C047   C     0.75214   0.76396   0.15630   1.00000  Uiso   1.00
C048   C     0.75109   0.87671   0.15666   1.00000  Uiso   1.00
C049   C     0.65104   0.93206   0.15763   1.00000  Uiso   1.00
C050   C     0.85348   0.71145   0.15461   1.00000  Uiso   1.00
C051   C     0.95270   0.76718   0.15459   1.00000  Uiso   1.00
C052   C     0.85120   0.93292   0.15599   1.00000  Uiso   1.00
C053   C     0.15296   0.87853   0.15548   1.00000  Uiso   1.00
C054   C     0.95205   0.87856   0.15551   1.00000  Uiso   1.00
N001   N     0.44558   0.38381   0.15920   1.00000  Uiso   1.00
N002   N     0.44579   0.59400   0.15736   1.00000  Uiso   1.00
N003   N     0.65906   0.38401   0.15793   1.00000  Uiso   1.00
N004   N     0.65941   0.59423   0.15890   1.00000  Uiso   1.00
N005   N     0.55121   0.49765   0.26340   1.00000  Uiso   1.00
H001   H     0.61757   0.51341   0.29183   1.00000  Uiso   1.00
H002   H     0.48251   0.50088   0.29137   1.00000  Uiso   1.00
Fe001  Fe    0.55241   0.49011   0.17469   1.00000  Uiso   1.00
loop_
_geom_bond_atom_site_label_1
_geom_bond_atom_site_label_2
_geom_bond_distance
_geom_bond_site_symmetry_2
_ccdc_geom_bond_type
C001   C002    1.434   .     D
C001   C018    1.435   1_455 S
C001   C037    1.417   1_545 S
C002   C003    1.419   .     S
C002   C005    1.436   .     S
C003   C004    1.430   .     D
C003   C008    1.427   .     S
C004   C019    1.430   1_455 S
C004   C021    1.421   .     S
C005   C006    1.440   .     S
C005   C041    1.428   1_545 D
C006   C007    1.437   .     S
C006   C009    1.434   .     D
C007   C008    1.431   .     S
C007   C012    1.446   .     D
C008   C025    1.418   .     D
C009   C010    1.440   .     S
C009   C045    1.450   1_545 S
C010   C011    1.463   .     D
C010   C013    1.440   .     S
C011   C012    1.449   .     S
C011   C016    1.448   .     S
C012   N001    1.393   .     S
C013   C014    1.434   .     D
C013   C049    1.450   1_545 S
C014   C015    1.437   .     S
C014   C017    1.440   .     S
C015   C016    1.446   .     S
C015   C020    1.431   .     D
C016   N003    1.395   .     D
C017   C018    1.436   .     S
C017   C052    1.428   1_545 D
C018   C001    1.435   1_655 S
C018   C019    1.419   .     D
C019   C004    1.430   1_655 S
C019   C020    1.427   .     S
C020   C031    1.418   .     S
C021   C022    1.420   .     D
C021   C032    1.420   1_455 S
C022   C023    1.417   .     S
C022   C025    1.422   .     S
C023   C024    1.419   .     D
C023   C028    1.423   .     S
C024   C033    1.420   1_455 S
C024   C035    1.420   .     S
C025   C026    1.410   .     S
C026   C027    1.425   .     S
C026   N001    1.378   .     D
C027   C028    1.409   .     S
C027   N002    1.379   .     D
C028   C038    1.418   .     D
C029   C030    1.425   .     S
C029   C031    1.410   .     D
C029   N003    1.378   .     S
C030   C034    1.409   .     S
C030   N004    1.378   .     D
C031   C032    1.423   .     S
C032   C021    1.420   1_655 S
C032   C033    1.417   .     D
C033   C024    1.420   1_655 S
C033   C034    1.422   .     S
C034   C050    1.418   .     D
C035   C036    1.430   .     S
C035   C051    1.430   1_455 D
C036   C038    1.427   .     S
C036   C053    1.419   .     D
C037   C001    1.417   1_565 S
C037   C053    1.435   .     S
C037   C054    1.434   1_455 D
C038   C039    1.431   .     S
C039   C040    1.437   .     S
C039   C042    1.446   .     D
C040   C041    1.440   .     S
C040   C045    1.434   .     D
C041   C005    1.428   1_565 D
C041   C053    1.436   .     S
C042   C043    1.448   .     S
C042   N002    1.395   .     S
C043   C044    1.462   .     S
C043   C046    1.449   .     D
C044   C045    1.440   .     S
C044   C049    1.440   .     D
C045   C009    1.450   1_565 S
C046   C047    1.445   .     S
C046   N004    1.393   .     S
C047   C048    1.436   .     D
C047   C050    1.431   .     S
C048   C049    1.434   .     S
C048   C052    1.440   .     S
C049   C013    1.450   1_565 S
C050   C051    1.427   .     S
C051   C035    1.430   1_655 D
C051   C054    1.419   .     S
C052   C017    1.428   1_565 D
C052   C054    1.436   .     S
C054   C037    1.434   1_655 D
N001   Fe001   1.925   .     S
N002   Fe001   1.908   .     S
N003   Fe001   1.926   .     S
N004   Fe001   1.908   .     S
N005   H001    1.024   .     S
N005   H002    1.024   .     S
N005   Fe001   1.776   .     S
