data_e-0.4-opt
_audit_creation_date              2024-12-22
_audit_creation_method            'Materials Studio'
_symmetry_space_group_name_H-M    'P1'
_symmetry_Int_Tables_number       1
_symmetry_cell_setting            triclinic
loop_
_symmetry_equiv_pos_as_xyz
  x,y,z
_cell_length_a                    12.4863
_cell_length_b                    12.7497
_cell_length_c                    20.0085
_cell_angle_alpha                 90.0000
_cell_angle_beta                  90.0000
_cell_angle_gamma                 90.0000
loop_
_atom_site_label
_atom_site_type_symbol
_atom_site_fract_x
_atom_site_fract_y
_atom_site_fract_z
_atom_site_U_iso_or_equiv
_atom_site_adp_type
_atom_site_occupancy
C001   C     0.04989   0.04542   0.15557   1.00000  Uiso   1.00
C002   C     0.15026   0.10013   0.15507   1.00000  Uiso   1.00
C003   C     0.14958   0.21145   0.15360   1.00000  Uiso   1.00
C004   C     0.04983   0.26656   0.15274   1.00000  Uiso   1.00
C005   C     0.25108   0.04583   0.15597   1.00000  Uiso   1.00
C006   C     0.35123   0.10197   0.15666   1.00000  Uiso   1.00
C007   C     0.35008   0.21465   0.15585   1.00000  Uiso   1.00
C008   C     0.24862   0.26707   0.15367   1.00000  Uiso   1.00
C009   C     0.45130   0.04668   0.15811   1.00000  Uiso   1.00
C010   C     0.54990   0.10577   0.15877   1.00000  Uiso   1.00
C011   C     0.54988   0.22028   0.15882   1.00000  Uiso   1.00
C012   C     0.44777   0.27522   0.15776   1.00000  Uiso   1.00
C013   C     0.64854   0.04665   0.15867   1.00000  Uiso   1.00
C014   C     0.74861   0.10198   0.15770   1.00000  Uiso   1.00
C015   C     0.74974   0.21464   0.15698   1.00000  Uiso   1.00
C016   C     0.65209   0.27533   0.15817   1.00000  Uiso   1.00
C017   C     0.84871   0.04584   0.15702   1.00000  Uiso   1.00
C018   C     0.94950   0.10017   0.15575   1.00000  Uiso   1.00
C019   C     0.95012   0.21146   0.15441   1.00000  Uiso   1.00
C020   C     0.85106   0.26713   0.15510   1.00000  Uiso   1.00
C021   C     0.04975   0.37807   0.15121   1.00000  Uiso   1.00
C022   C     0.14767   0.43428   0.15065   1.00000  Uiso   1.00
C023   C     0.14767   0.54542   0.15071   1.00000  Uiso   1.00
C024   C     0.04976   0.60162   0.15130   1.00000  Uiso   1.00
C025   C     0.24638   0.37837   0.15237   1.00000  Uiso   1.00
C026   C     0.34319   0.43371   0.15479   1.00000  Uiso   1.00
C027   C     0.34320   0.54598   0.15491   1.00000  Uiso   1.00
C028   C     0.24639   0.60131   0.15251   1.00000  Uiso   1.00
C029   C     0.75624   0.43364   0.15651   1.00000  Uiso   1.00
C030   C     0.75624   0.54605   0.15662   1.00000  Uiso   1.00
C031   C     0.85314   0.37843   0.15428   1.00000  Uiso   1.00
C032   C     0.95183   0.43429   0.15204   1.00000  Uiso   1.00
C033   C     0.95183   0.54540   0.15208   1.00000  Uiso   1.00
C034   C     0.85315   0.60126   0.15440   1.00000  Uiso   1.00
C035   C     0.04983   0.71313   0.15290   1.00000  Uiso   1.00
C036   C     0.14958   0.76824   0.15377   1.00000  Uiso   1.00
C037   C     0.04989   0.93427   0.15563   1.00000  Uiso   1.00
C038   C     0.24863   0.71262   0.15387   1.00000  Uiso   1.00
C039   C     0.35009   0.76502   0.15606   1.00000  Uiso   1.00
C040   C     0.35123   0.87771   0.15678   1.00000  Uiso   1.00
C041   C     0.25109   0.93385   0.15603   1.00000  Uiso   1.00
C042   C     0.44778   0.70445   0.15803   1.00000  Uiso   1.00
C043   C     0.54988   0.75940   0.15905   1.00000  Uiso   1.00
C044   C     0.54990   0.87391   0.15889   1.00000  Uiso   1.00
C045   C     0.45130   0.93301   0.15817   1.00000  Uiso   1.00
C046   C     0.65208   0.70434   0.15844   1.00000  Uiso   1.00
C047   C     0.74974   0.76504   0.15717   1.00000  Uiso   1.00
C048   C     0.74861   0.87771   0.15780   1.00000  Uiso   1.00
C049   C     0.64854   0.93303   0.15872   1.00000  Uiso   1.00
C050   C     0.85105   0.71255   0.15528   1.00000  Uiso   1.00
C051   C     0.95012   0.76823   0.15457   1.00000  Uiso   1.00
C052   C     0.84871   0.93385   0.15707   1.00000  Uiso   1.00
C053   C     0.15026   0.87956   0.15518   1.00000  Uiso   1.00
C054   C     0.94950   0.87953   0.15585   1.00000  Uiso   1.00
N001   N     0.44226   0.38458   0.15842   1.00000  Uiso   1.00
N002   N     0.44226   0.59508   0.15874   1.00000  Uiso   1.00
N003   N     0.65751   0.38426   0.15837   1.00000  Uiso   1.00
N004   N     0.65752   0.59541   0.15869   1.00000  Uiso   1.00
N005   N     0.55880   0.48611   0.27691   1.00000  Uiso   1.00
O001   O     0.65523   0.48709   0.30199   1.00000  Uiso   1.00
Fe001  Fe    0.54982   0.48974   0.16593   1.00000  Uiso   1.00
H001   H     0.51270   0.55163   0.28733   1.00000  Uiso   1.00
H002   H     0.51555   0.41804   0.28521   1.00000  Uiso   1.00
loop_
_geom_bond_atom_site_label_1
_geom_bond_atom_site_label_2
_geom_bond_distance
_geom_bond_site_symmetry_2
_ccdc_geom_bond_type
C001   C002    1.434   .     D
C001   C018    1.435   1_455 S
C001   C037    1.417   1_545 S
C002   C003    1.420   .     S
C002   C005    1.437   .     S
C003   C004    1.430   .     D
C003   C008    1.426   .     S
C004   C019    1.430   1_455 S
C004   C021    1.422   .     S
C005   C006    1.441   .     S
C005   C041    1.428   1_545 D
C006   C007    1.437   .     S
C006   C009    1.435   .     D
C007   C008    1.433   .     S
C007   C012    1.444   .     D
C008   C025    1.420   .     D
C009   C010    1.444   .     S
C009   C045    1.449   1_545 S
C010   C011    1.460   .     D
C010   C013    1.444   .     S
C011   C012    1.455   .     S
C011   C016    1.457   .     S
C012   N001    1.396   .     S
C013   C014    1.435   .     D
C013   C049    1.449   1_545 S
C014   C015    1.437   .     S
C014   C017    1.440   .     S
C015   C016    1.444   .     S
C015   C020    1.432   .     D
C016   N003    1.390   .     D
C017   C018    1.437   .     S
C017   C052    1.428   1_545 D
C018   C001    1.435   1_655 S
C018   C019    1.419   .     D
C019   C004    1.430   1_655 S
C019   C020    1.426   .     S
C020   C031    1.419   .     S
C021   C022    1.417   .     D
C021   C032    1.417   1_455 S
C022   C023    1.417   .     S
C022   C025    1.424   .     S
C023   C024    1.417   .     D
C023   C028    1.424   .     S
C024   C033    1.417   1_455 S
C024   C035    1.422   .     S
C025   C026    1.400   .     S
C026   C027    1.431   .     S
C026   N001    1.388   .     D
C027   C028    1.400   .     S
C027   N002    1.388   .     D
C028   C038    1.420   .     D
C029   C030    1.433   .     S
C029   C031    1.400   .     D
C029   N003    1.385   .     S
C030   C034    1.400   .     S
C030   N004    1.385   .     D
C031   C032    1.424   .     S
C032   C021    1.417   1_655 S
C032   C033    1.417   .     D
C033   C024    1.417   1_655 S
C033   C034    1.424   .     S
C034   C050    1.419   .     D
C035   C036    1.430   .     S
C035   C051    1.430   1_455 D
C036   C038    1.426   .     S
C036   C053    1.420   .     D
C037   C001    1.417   1_565 S
C037   C053    1.434   .     S
C037   C054    1.435   1_455 D
C038   C039    1.433   .     S
C039   C040    1.437   .     S
C039   C042    1.444   .     D
C040   C041    1.441   .     S
C040   C045    1.435   .     D
C041   C005    1.428   1_565 D
C041   C053    1.437   .     S
C042   C043    1.455   .     S
C042   N002    1.396   .     S
C043   C044    1.460   .     S
C043   C046    1.456   .     D
C044   C045    1.444   .     S
C044   C049    1.444   .     D
C045   C009    1.449   1_565 S
C046   C047    1.444   .     S
C046   N004    1.391   .     S
C047   C048    1.437   .     D
C047   C050    1.432   .     S
C048   C049    1.435   .     S
C048   C052    1.440   .     S
C049   C013    1.449   1_565 S
C050   C051    1.426   .     S
C051   C035    1.430   1_655 D
C051   C054    1.419   .     S
C052   C017    1.428   1_565 D
C052   C054    1.437   .     S
C054   C037    1.435   1_655 D
N001   Fe001   1.904   .     S
N002   Fe001   1.905   .     S
N003   Fe001   1.908   .     S
N004   Fe001   1.909   .     S
N005   O001    1.305   .     S
N005   Fe001   2.224   .     S
N005   H001    1.036   .     S
N005   H002    1.036   .     S
