data_e+0.4-opt
_audit_creation_date              2024-12-22
_audit_creation_method            'Materials Studio'
_symmetry_space_group_name_H-M    'P1'
_symmetry_Int_Tables_number       1
_symmetry_cell_setting            triclinic
loop_
_symmetry_equiv_pos_as_xyz
  x,y,z
_cell_length_a                    12.4863
_cell_length_b                    12.7497
_cell_length_c                    20.0085
_cell_angle_alpha                 90.0000
_cell_angle_beta                  90.0000
_cell_angle_gamma                 90.0000
loop_
_atom_site_label
_atom_site_type_symbol
_atom_site_fract_x
_atom_site_fract_y
_atom_site_fract_z
_atom_site_U_iso_or_equiv
_atom_site_adp_type
_atom_site_occupancy
C001   C     0.04994   0.04542   0.15556   1.00000  Uiso   1.00
C002   C     0.15027   0.10013   0.15505   1.00000  Uiso   1.00
C003   C     0.14960   0.21141   0.15353   1.00000  Uiso   1.00
C004   C     0.04990   0.26654   0.15270   1.00000  Uiso   1.00
C005   C     0.25109   0.04582   0.15599   1.00000  Uiso   1.00
C006   C     0.35123   0.10192   0.15671   1.00000  Uiso   1.00
C007   C     0.35004   0.21461   0.15580   1.00000  Uiso   1.00
C008   C     0.24865   0.26704   0.15353   1.00000  Uiso   1.00
C009   C     0.45131   0.04669   0.15828   1.00000  Uiso   1.00
C010   C     0.54996   0.10586   0.15896   1.00000  Uiso   1.00
C011   C     0.54996   0.22029   0.15898   1.00000  Uiso   1.00
C012   C     0.44771   0.27517   0.15776   1.00000  Uiso   1.00
C013   C     0.64863   0.04668   0.15886   1.00000  Uiso   1.00
C014   C     0.74871   0.10195   0.15780   1.00000  Uiso   1.00
C015   C     0.74991   0.21462   0.15695   1.00000  Uiso   1.00
C016   C     0.65231   0.27531   0.15813   1.00000  Uiso   1.00
C017   C     0.84880   0.04583   0.15710   1.00000  Uiso   1.00
C018   C     0.94959   0.10016   0.15577   1.00000  Uiso   1.00
C019   C     0.95023   0.21142   0.15440   1.00000  Uiso   1.00
C020   C     0.85118   0.26710   0.15501   1.00000  Uiso   1.00
C021   C     0.04986   0.37811   0.15108   1.00000  Uiso   1.00
C022   C     0.14774   0.43428   0.15043   1.00000  Uiso   1.00
C023   C     0.14775   0.54543   0.15049   1.00000  Uiso   1.00
C024   C     0.04986   0.60160   0.15117   1.00000  Uiso   1.00
C025   C     0.24639   0.37831   0.15211   1.00000  Uiso   1.00
C026   C     0.34322   0.43361   0.15458   1.00000  Uiso   1.00
C027   C     0.34323   0.54610   0.15470   1.00000  Uiso   1.00
C028   C     0.24640   0.60139   0.15224   1.00000  Uiso   1.00
C029   C     0.75657   0.43352   0.15610   1.00000  Uiso   1.00
C030   C     0.75657   0.54617   0.15621   1.00000  Uiso   1.00
C031   C     0.85340   0.37834   0.15402   1.00000  Uiso   1.00
C032   C     0.95199   0.43429   0.15187   1.00000  Uiso   1.00
C033   C     0.95200   0.54541   0.15192   1.00000  Uiso   1.00
C034   C     0.85340   0.60136   0.15414   1.00000  Uiso   1.00
C035   C     0.04990   0.71317   0.15285   1.00000  Uiso   1.00
C036   C     0.14960   0.76829   0.15369   1.00000  Uiso   1.00
C037   C     0.04994   0.93428   0.15562   1.00000  Uiso   1.00
C038   C     0.24866   0.71266   0.15372   1.00000  Uiso   1.00
C039   C     0.35006   0.76509   0.15599   1.00000  Uiso   1.00
C040   C     0.35123   0.87777   0.15682   1.00000  Uiso   1.00
C041   C     0.25109   0.93388   0.15604   1.00000  Uiso   1.00
C042   C     0.44773   0.70451   0.15802   1.00000  Uiso   1.00
C043   C     0.54996   0.75941   0.15920   1.00000  Uiso   1.00
C044   C     0.54996   0.87384   0.15907   1.00000  Uiso   1.00
C045   C     0.45131   0.93301   0.15833   1.00000  Uiso   1.00
C046   C     0.65230   0.70438   0.15839   1.00000  Uiso   1.00
C047   C     0.74990   0.76508   0.15713   1.00000  Uiso   1.00
C048   C     0.74870   0.87776   0.15789   1.00000  Uiso   1.00
C049   C     0.64863   0.93303   0.15891   1.00000  Uiso   1.00
C050   C     0.85117   0.71261   0.15518   1.00000  Uiso   1.00
C051   C     0.95023   0.76829   0.15455   1.00000  Uiso   1.00
C052   C     0.84879   0.93388   0.15715   1.00000  Uiso   1.00
C053   C     0.15027   0.87957   0.15515   1.00000  Uiso   1.00
C054   C     0.94959   0.87955   0.15586   1.00000  Uiso   1.00
N001   N     0.44210   0.38442   0.15849   1.00000  Uiso   1.00
N002   N     0.44211   0.59526   0.15881   1.00000  Uiso   1.00
N003   N     0.65804   0.38418   0.15828   1.00000  Uiso   1.00
N004   N     0.65804   0.59550   0.15862   1.00000  Uiso   1.00
N005   N     0.55820   0.48608   0.27643   1.00000  Uiso   1.00
O001   O     0.65290   0.48691   0.30673   1.00000  Uiso   1.00
Fe001  Fe    0.55029   0.48976   0.16601   1.00000  Uiso   1.00
H001   H     0.51130   0.55105   0.28647   1.00000  Uiso   1.00
H002   H     0.51432   0.41840   0.28425   1.00000  Uiso   1.00
loop_
_geom_bond_atom_site_label_1
_geom_bond_atom_site_label_2
_geom_bond_distance
_geom_bond_site_symmetry_2
_ccdc_geom_bond_type
C001   C002    1.434   .     D
C001   C018    1.434   1_455 S
C001   C037    1.417   1_545 S
C002   C003    1.419   .     S
C002   C005    1.437   .     S
C003   C004    1.430   .     D
C003   C008    1.426   .     S
C004   C019    1.430   1_455 S
C004   C021    1.423   .     S
C005   C006    1.441   .     S
C005   C041    1.427   1_545 D
C006   C007    1.437   .     S
C006   C009    1.435   .     D
C007   C008    1.432   .     S
C007   C012    1.444   .     D
C008   C025    1.419   .     D
C009   C010    1.445   .     S
C009   C045    1.449   1_545 S
C010   C011    1.459   .     D
C010   C013    1.445   .     S
C011   C012    1.456   .     S
C011   C016    1.458   .     S
C012   N001    1.395   .     S
C013   C014    1.435   .     D
C013   C049    1.449   1_545 S
C014   C015    1.437   .     S
C014   C017    1.440   .     S
C015   C016    1.444   .     S
C015   C020    1.431   .     D
C016   N003    1.390   .     D
C017   C018    1.437   .     S
C017   C052    1.427   1_545 D
C018   C001    1.434   1_655 S
C018   C019    1.419   .     D
C019   C004    1.430   1_655 S
C019   C020    1.426   .     S
C020   C031    1.419   .     S
C021   C022    1.417   .     D
C021   C032    1.417   1_455 S
C022   C023    1.417   .     S
C022   C025    1.424   .     S
C023   C024    1.417   .     D
C023   C028    1.424   .     S
C024   C033    1.417   1_455 S
C024   C035    1.423   .     S
C025   C026    1.400   .     S
C026   C027    1.434   .     S
C026   N001    1.387   .     D
C027   C028    1.400   .     S
C027   N002    1.387   .     D
C028   C038    1.419   .     D
C029   C030    1.436   .     S
C029   C031    1.399   .     D
C029   N003    1.382   .     S
C030   C034    1.400   .     S
C030   N004    1.383   .     D
C031   C032    1.423   .     S
C032   C021    1.417   1_655 S
C032   C033    1.417   .     D
C033   C024    1.417   1_655 S
C033   C034    1.423   .     S
C034   C050    1.419   .     D
C035   C036    1.430   .     S
C035   C051    1.430   1_455 D
C036   C038    1.426   .     S
C036   C053    1.419   .     D
C037   C001    1.417   1_565 S
C037   C053    1.434   .     S
C037   C054    1.434   1_455 D
C038   C039    1.432   .     S
C039   C040    1.437   .     S
C039   C042    1.444   .     D
C040   C041    1.441   .     S
C040   C045    1.435   .     D
C041   C005    1.427   1_565 D
C041   C053    1.437   .     S
C042   C043    1.456   .     S
C042   N002    1.395   .     S
C043   C044    1.459   .     S
C043   C046    1.458   .     D
C044   C045    1.445   .     S
C044   C049    1.445   .     D
C045   C009    1.449   1_565 S
C046   C047    1.444   .     S
C046   N004    1.390   .     S
C047   C048    1.437   .     D
C047   C050    1.431   .     S
C048   C049    1.435   .     S
C048   C052    1.440   .     S
C049   C013    1.449   1_565 S
C050   C051    1.426   .     S
C051   C035    1.430   1_655 D
C051   C054    1.419   .     S
C052   C017    1.427   1_565 D
C052   C054    1.437   .     S
C054   C037    1.434   1_655 D
N001   Fe001   1.911   .     S
N002   Fe001   1.912   .     S
N003   Fe001   1.909   .     S
N004   Fe001   1.910   .     S
N005   O001    1.329   .     S
N005   Fe001   2.212   .     S
N005   H001    1.034   .     S
N005   H002    1.034   .     S
