data_e-1.0-opt
_audit_creation_date              2024-12-22
_audit_creation_method            'Materials Studio'
_symmetry_space_group_name_H-M    'P1'
_symmetry_Int_Tables_number       1
_symmetry_cell_setting            triclinic
loop_
_symmetry_equiv_pos_as_xyz
  x,y,z
_cell_length_a                    12.4863
_cell_length_b                    12.7497
_cell_length_c                    20.0085
_cell_angle_alpha                 90.0000
_cell_angle_beta                  90.0000
_cell_angle_gamma                 90.0000
loop_
_atom_site_label
_atom_site_type_symbol
_atom_site_fract_x
_atom_site_fract_y
_atom_site_fract_z
_atom_site_U_iso_or_equiv
_atom_site_adp_type
_atom_site_occupancy
C001   C     0.04984   0.04542   0.15547   1.00000  Uiso   1.00
C002   C     0.15014   0.10010   0.15497   1.00000  Uiso   1.00
C003   C     0.14944   0.21140   0.15356   1.00000  Uiso   1.00
C004   C     0.04976   0.26651   0.15274   1.00000  Uiso   1.00
C005   C     0.25095   0.04579   0.15581   1.00000  Uiso   1.00
C006   C     0.35109   0.10189   0.15649   1.00000  Uiso   1.00
C007   C     0.34992   0.21465   0.15582   1.00000  Uiso   1.00
C008   C     0.24856   0.26705   0.15370   1.00000  Uiso   1.00
C009   C     0.45107   0.04666   0.15787   1.00000  Uiso   1.00
C010   C     0.54983   0.10586   0.15856   1.00000  Uiso   1.00
C011   C     0.54978   0.22014   0.15878   1.00000  Uiso   1.00
C012   C     0.44758   0.27513   0.15786   1.00000  Uiso   1.00
C013   C     0.64863   0.04662   0.15841   1.00000  Uiso   1.00
C014   C     0.74865   0.10185   0.15750   1.00000  Uiso   1.00
C015   C     0.74980   0.21452   0.15690   1.00000  Uiso   1.00
C016   C     0.65214   0.27513   0.15823   1.00000  Uiso   1.00
C017   C     0.84876   0.04579   0.15684   1.00000  Uiso   1.00
C018   C     0.94952   0.10014   0.15564   1.00000  Uiso   1.00
C019   C     0.95013   0.21140   0.15436   1.00000  Uiso   1.00
C020   C     0.85096   0.26710   0.15508   1.00000  Uiso   1.00
C021   C     0.04966   0.37819   0.15122   1.00000  Uiso   1.00
C022   C     0.14761   0.43426   0.15071   1.00000  Uiso   1.00
C023   C     0.14761   0.54541   0.15077   1.00000  Uiso   1.00
C024   C     0.04966   0.60148   0.15132   1.00000  Uiso   1.00
C025   C     0.24632   0.37832   0.15247   1.00000  Uiso   1.00
C026   C     0.34326   0.43351   0.15511   1.00000  Uiso   1.00
C027   C     0.34327   0.54617   0.15524   1.00000  Uiso   1.00
C028   C     0.24632   0.60135   0.15262   1.00000  Uiso   1.00
C029   C     0.75583   0.43339   0.15654   1.00000  Uiso   1.00
C030   C     0.75583   0.54628   0.15663   1.00000  Uiso   1.00
C031   C     0.85298   0.37839   0.15425   1.00000  Uiso   1.00
C032   C     0.95168   0.43429   0.15201   1.00000  Uiso   1.00
C033   C     0.95169   0.54539   0.15207   1.00000  Uiso   1.00
C034   C     0.85299   0.60128   0.15437   1.00000  Uiso   1.00
C035   C     0.04977   0.71316   0.15291   1.00000  Uiso   1.00
C036   C     0.14945   0.76828   0.15374   1.00000  Uiso   1.00
C037   C     0.04984   0.93426   0.15552   1.00000  Uiso   1.00
C038   C     0.24857   0.71262   0.15391   1.00000  Uiso   1.00
C039   C     0.34993   0.76502   0.15604   1.00000  Uiso   1.00
C040   C     0.35110   0.87778   0.15661   1.00000  Uiso   1.00
C041   C     0.25095   0.93388   0.15587   1.00000  Uiso   1.00
C042   C     0.44759   0.70452   0.15815   1.00000  Uiso   1.00
C043   C     0.54978   0.75952   0.15901   1.00000  Uiso   1.00
C044   C     0.54983   0.87380   0.15868   1.00000  Uiso   1.00
C045   C     0.45108   0.93301   0.15794   1.00000  Uiso   1.00
C046   C     0.65214   0.70452   0.15848   1.00000  Uiso   1.00
C047   C     0.74980   0.76515   0.15709   1.00000  Uiso   1.00
C048   C     0.74865   0.87783   0.15761   1.00000  Uiso   1.00
C049   C     0.64863   0.93306   0.15847   1.00000  Uiso   1.00
C050   C     0.85096   0.71258   0.15526   1.00000  Uiso   1.00
C051   C     0.95014   0.76828   0.15452   1.00000  Uiso   1.00
C052   C     0.84876   0.93389   0.15689   1.00000  Uiso   1.00
C053   C     0.15014   0.87958   0.15508   1.00000  Uiso   1.00
C054   C     0.94952   0.87954   0.15574   1.00000  Uiso   1.00
N001   N     0.44197   0.38453   0.15888   1.00000  Uiso   1.00
N002   N     0.44195   0.59513   0.15918   1.00000  Uiso   1.00
N003   N     0.65758   0.38391   0.15873   1.00000  Uiso   1.00
N004   N     0.65763   0.59575   0.15899   1.00000  Uiso   1.00
N005   N     0.55918   0.48617   0.27763   1.00000  Uiso   1.00
O001   O     0.65721   0.48725   0.29802   1.00000  Uiso   1.00
Fe001  Fe    0.54941   0.48967   0.16656   1.00000  Uiso   1.00
H001   H     0.51413   0.55215   0.28908   1.00000  Uiso   1.00
H002   H     0.51676   0.41779   0.28707   1.00000  Uiso   1.00
loop_
_geom_bond_atom_site_label_1
_geom_bond_atom_site_label_2
_geom_bond_distance
_geom_bond_site_symmetry_2
_ccdc_geom_bond_type
C001   C002    1.433   .     D
C001   C018    1.434   1_455 S
C001   C037    1.417   1_545 S
C002   C003    1.419   .     S
C002   C005    1.437   .     S
C003   C004    1.429   .     D
C003   C008    1.427   .     S
C004   C019    1.429   1_455 S
C004   C021    1.424   .     S
C005   C006    1.441   .     S
C005   C041    1.427   1_545 D
C006   C007    1.438   .     S
C006   C009    1.434   .     D
C007   C008    1.432   .     S
C007   C012    1.443   .     D
C008   C025    1.419   .     D
C009   C010    1.446   .     S
C009   C045    1.449   1_545 S
C010   C011    1.457   .     D
C010   C013    1.447   .     S
C011   C012    1.456   .     S
C011   C016    1.458   .     S
C012   N001    1.397   .     S
C013   C014    1.434   .     D
C013   C049    1.448   1_545 S
C014   C015    1.437   .     S
C014   C017    1.440   .     S
C015   C016    1.444   .     S
C015   C020    1.430   .     D
C016   N003    1.389   .     D
C017   C018    1.437   .     S
C017   C052    1.427   1_545 D
C018   C001    1.434   1_655 S
C018   C019    1.419   .     D
C019   C004    1.429   1_655 S
C019   C020    1.428   .     S
C020   C031    1.419   .     S
C021   C022    1.417   .     D
C021   C032    1.417   1_455 S
C022   C023    1.417   .     S
C022   C025    1.424   .     S
C023   C024    1.417   .     D
C023   C028    1.425   .     S
C024   C033    1.417   1_455 S
C024   C035    1.424   .     S
C025   C026    1.401   .     S
C026   C027    1.436   .     S
C026   N001    1.384   .     D
C027   C028    1.401   .     S
C027   N002    1.384   .     D
C028   C038    1.419   .     D
C029   C030    1.439   .     S
C029   C031    1.402   .     D
C029   N003    1.380   .     S
C030   C034    1.402   .     S
C030   N004    1.380   .     D
C031   C032    1.424   .     S
C032   C021    1.417   1_655 S
C032   C033    1.417   .     D
C033   C024    1.417   1_655 S
C033   C034    1.424   .     S
C034   C050    1.419   .     D
C035   C036    1.429   .     S
C035   C051    1.429   1_455 D
C036   C038    1.427   .     S
C036   C053    1.419   .     D
C037   C001    1.417   1_565 S
C037   C053    1.433   .     S
C037   C054    1.434   1_455 D
C038   C039    1.432   .     S
C039   C040    1.438   .     S
C039   C042    1.443   .     D
C040   C041    1.441   .     S
C040   C045    1.434   .     D
C041   C005    1.427   1_565 D
C041   C053    1.437   .     S
C042   C043    1.456   .     S
C042   N002    1.397   .     S
C043   C044    1.457   .     S
C043   C046    1.458   .     D
C044   C045    1.446   .     S
C044   C049    1.447   .     D
C045   C009    1.449   1_565 S
C046   C047    1.444   .     S
C046   N004    1.388   .     S
C047   C048    1.437   .     D
C047   C050    1.430   .     S
C048   C049    1.434   .     S
C048   C052    1.440   .     S
C049   C013    1.448   1_565 S
C050   C051    1.428   .     S
C051   C035    1.429   1_655 D
C051   C054    1.419   .     S
C052   C017    1.427   1_565 D
C052   C054    1.437   .     S
C054   C037    1.434   1_655 D
N001   Fe001   1.903   .     S
N002   Fe001   1.905   .     S
N003   Fe001   1.915   .     S
N004   Fe001   1.918   .     S
N005   O001    1.290   .     S
N005   Fe001   2.226   .     S
N005   H001    1.038   .     S
N005   H002    1.038   .     S
