data_e+0.2-opt
_audit_creation_date              2024-12-22
_audit_creation_method            'Materials Studio'
_symmetry_space_group_name_H-M    'P1'
_symmetry_Int_Tables_number       1
_symmetry_cell_setting            triclinic
loop_
_symmetry_equiv_pos_as_xyz
  x,y,z
_cell_length_a                    12.4863
_cell_length_b                    12.7497
_cell_length_c                    20.0085
_cell_angle_alpha                 90.0000
_cell_angle_beta                  90.0000
_cell_angle_gamma                 90.0000
loop_
_atom_site_label
_atom_site_type_symbol
_atom_site_fract_x
_atom_site_fract_y
_atom_site_fract_z
_atom_site_U_iso_or_equiv
_atom_site_adp_type
_atom_site_occupancy
C001   C     0.04994   0.04544   0.15552   1.00000  Uiso   1.00
C002   C     0.15029   0.10012   0.15501   1.00000  Uiso   1.00
C003   C     0.14960   0.21145   0.15348   1.00000  Uiso   1.00
C004   C     0.04989   0.26656   0.15263   1.00000  Uiso   1.00
C005   C     0.25111   0.04585   0.15602   1.00000  Uiso   1.00
C006   C     0.35126   0.10194   0.15678   1.00000  Uiso   1.00
C007   C     0.35011   0.21464   0.15578   1.00000  Uiso   1.00
C008   C     0.24869   0.26708   0.15348   1.00000  Uiso   1.00
C009   C     0.45132   0.04668   0.15840   1.00000  Uiso   1.00
C010   C     0.54997   0.10581   0.15907   1.00000  Uiso   1.00
C011   C     0.54996   0.22028   0.15896   1.00000  Uiso   1.00
C012   C     0.44778   0.27520   0.15766   1.00000  Uiso   1.00
C013   C     0.64863   0.04666   0.15902   1.00000  Uiso   1.00
C014   C     0.74868   0.10196   0.15795   1.00000  Uiso   1.00
C015   C     0.74985   0.21464   0.15704   1.00000  Uiso   1.00
C016   C     0.65222   0.27533   0.15813   1.00000  Uiso   1.00
C017   C     0.84879   0.04585   0.15720   1.00000  Uiso   1.00
C018   C     0.94959   0.10016   0.15577   1.00000  Uiso   1.00
C019   C     0.95023   0.21146   0.15440   1.00000  Uiso   1.00
C020   C     0.85113   0.26714   0.15510   1.00000  Uiso   1.00
C021   C     0.04984   0.37811   0.15104   1.00000  Uiso   1.00
C022   C     0.14776   0.43431   0.15034   1.00000  Uiso   1.00
C023   C     0.14776   0.54540   0.15039   1.00000  Uiso   1.00
C024   C     0.04985   0.60160   0.15114   1.00000  Uiso   1.00
C025   C     0.24648   0.37836   0.15196   1.00000  Uiso   1.00
C026   C     0.34330   0.43364   0.15427   1.00000  Uiso   1.00
C027   C     0.34331   0.54607   0.15438   1.00000  Uiso   1.00
C028   C     0.24648   0.60135   0.15209   1.00000  Uiso   1.00
C029   C     0.75640   0.43356   0.15610   1.00000  Uiso   1.00
C030   C     0.75641   0.54614   0.15621   1.00000  Uiso   1.00
C031   C     0.85326   0.37841   0.15410   1.00000  Uiso   1.00
C032   C     0.95194   0.43433   0.15192   1.00000  Uiso   1.00
C033   C     0.95194   0.54538   0.15196   1.00000  Uiso   1.00
C034   C     0.85326   0.60130   0.15421   1.00000  Uiso   1.00
C035   C     0.04989   0.71315   0.15278   1.00000  Uiso   1.00
C036   C     0.14961   0.76826   0.15364   1.00000  Uiso   1.00
C037   C     0.04994   0.93427   0.15557   1.00000  Uiso   1.00
C038   C     0.24870   0.71263   0.15368   1.00000  Uiso   1.00
C039   C     0.35012   0.76507   0.15597   1.00000  Uiso   1.00
C040   C     0.35127   0.87777   0.15688   1.00000  Uiso   1.00
C041   C     0.25111   0.93386   0.15608   1.00000  Uiso   1.00
C042   C     0.44779   0.70450   0.15791   1.00000  Uiso   1.00
C043   C     0.54996   0.75943   0.15916   1.00000  Uiso   1.00
C044   C     0.54997   0.87390   0.15917   1.00000  Uiso   1.00
C045   C     0.45132   0.93303   0.15845   1.00000  Uiso   1.00
C046   C     0.65221   0.70437   0.15837   1.00000  Uiso   1.00
C047   C     0.74984   0.76507   0.15721   1.00000  Uiso   1.00
C048   C     0.74868   0.87775   0.15804   1.00000  Uiso   1.00
C049   C     0.64863   0.93305   0.15907   1.00000  Uiso   1.00
C050   C     0.85113   0.71257   0.15527   1.00000  Uiso   1.00
C051   C     0.95023   0.76825   0.15455   1.00000  Uiso   1.00
C052   C     0.84879   0.93386   0.15724   1.00000  Uiso   1.00
C053   C     0.15029   0.87959   0.15512   1.00000  Uiso   1.00
C054   C     0.94959   0.87956   0.15587   1.00000  Uiso   1.00
N001   N     0.44221   0.38446   0.15825   1.00000  Uiso   1.00
N002   N     0.44222   0.59523   0.15856   1.00000  Uiso   1.00
N003   N     0.65783   0.38420   0.15823   1.00000  Uiso   1.00
N004   N     0.65783   0.59549   0.15855   1.00000  Uiso   1.00
N005   N     0.55806   0.48603   0.27677   1.00000  Uiso   1.00
O001   O     0.65341   0.48680   0.30551   1.00000  Uiso   1.00
Fe001  Fe    0.55016   0.48977   0.16613   1.00000  Uiso   1.00
H001   H     0.51147   0.55106   0.28724   1.00000  Uiso   1.00
H002   H     0.51440   0.41827   0.28487   1.00000  Uiso   1.00
loop_
_geom_bond_atom_site_label_1
_geom_bond_atom_site_label_2
_geom_bond_distance
_geom_bond_site_symmetry_2
_ccdc_geom_bond_type
C001   C002    1.434   .     D
C001   C018    1.434   1_455 S
C001   C037    1.417   1_545 S
C002   C003    1.420   .     S
C002   C005    1.437   .     S
C003   C004    1.430   .     D
C003   C008    1.426   .     S
C004   C019    1.429   1_455 S
C004   C021    1.423   .     S
C005   C006    1.441   .     S
C005   C041    1.428   1_545 D
C006   C007    1.437   .     S
C006   C009    1.435   .     D
C007   C008    1.433   .     S
C007   C012    1.444   .     D
C008   C025    1.419   .     D
C009   C010    1.444   .     S
C009   C045    1.449   1_545 S
C010   C011    1.459   .     D
C010   C013    1.444   .     S
C011   C012    1.456   .     S
C011   C016    1.457   .     S
C012   N001    1.395   .     S
C013   C014    1.435   .     D
C013   C049    1.449   1_545 S
C014   C015    1.437   .     S
C014   C017    1.440   .     S
C015   C016    1.444   .     S
C015   C020    1.431   .     D
C016   N003    1.390   .     D
C017   C018    1.437   .     S
C017   C052    1.428   1_545 D
C018   C001    1.434   1_655 S
C018   C019    1.419   .     D
C019   C004    1.429   1_655 S
C019   C020    1.427   .     S
C020   C031    1.419   .     S
C021   C022    1.417   .     D
C021   C032    1.417   1_455 S
C022   C023    1.416   .     S
C022   C025    1.425   .     S
C023   C024    1.417   .     D
C023   C028    1.425   .     S
C024   C033    1.417   1_455 S
C024   C035    1.423   .     S
C025   C026    1.400   .     S
C026   C027    1.433   .     S
C026   N001    1.387   .     D
C027   C028    1.400   .     S
C027   N002    1.387   .     D
C028   C038    1.419   .     D
C029   C030    1.435   .     S
C029   C031    1.400   .     D
C029   N003    1.383   .     S
C030   C034    1.400   .     S
C030   N004    1.383   .     D
C031   C032    1.424   .     S
C032   C021    1.417   1_655 S
C032   C033    1.416   .     D
C033   C024    1.417   1_655 S
C033   C034    1.424   .     S
C034   C050    1.419   .     D
C035   C036    1.430   .     S
C035   C051    1.429   1_455 D
C036   C038    1.426   .     S
C036   C053    1.420   .     D
C037   C001    1.417   1_565 S
C037   C053    1.434   .     S
C037   C054    1.434   1_455 D
C038   C039    1.433   .     S
C039   C040    1.437   .     S
C039   C042    1.444   .     D
C040   C041    1.441   .     S
C040   C045    1.435   .     D
C041   C005    1.428   1_565 D
C041   C053    1.437   .     S
C042   C043    1.456   .     S
C042   N002    1.395   .     S
C043   C044    1.459   .     S
C043   C046    1.457   .     D
C044   C045    1.444   .     S
C044   C049    1.445   .     D
C045   C009    1.449   1_565 S
C046   C047    1.444   .     S
C046   N004    1.390   .     S
C047   C048    1.437   .     D
C047   C050    1.431   .     S
C048   C049    1.435   .     S
C048   C052    1.440   .     S
C049   C013    1.449   1_565 S
C050   C051    1.427   .     S
C051   C035    1.429   1_655 D
C051   C054    1.419   .     S
C052   C017    1.428   1_565 D
C052   C054    1.437   .     S
C054   C037    1.434   1_655 D
N001   Fe001   1.909   .     S
N002   Fe001   1.910   .     S
N003   Fe001   1.909   .     S
N004   Fe001   1.910   .     S
N005   O001    1.322   .     S
N005   Fe001   2.216   .     S
N005   H001    1.034   .     S
N005   H002    1.034   .     S
