data_e+0.8-opt
_audit_creation_date              2024-12-22
_audit_creation_method            'Materials Studio'
_symmetry_space_group_name_H-M    'P1'
_symmetry_Int_Tables_number       1
_symmetry_cell_setting            triclinic
loop_
_symmetry_equiv_pos_as_xyz
  x,y,z
_cell_length_a                    12.4863
_cell_length_b                    12.7497
_cell_length_c                    20.0085
_cell_angle_alpha                 90.0000
_cell_angle_beta                  90.0000
_cell_angle_gamma                 90.0000
loop_
_atom_site_label
_atom_site_type_symbol
_atom_site_fract_x
_atom_site_fract_y
_atom_site_fract_z
_atom_site_U_iso_or_equiv
_atom_site_adp_type
_atom_site_occupancy
C001   C     0.04995   0.04543   0.15559   1.00000  Uiso   1.00
C002   C     0.15022   0.10011   0.15506   1.00000  Uiso   1.00
C003   C     0.14952   0.21137   0.15355   1.00000  Uiso   1.00
C004   C     0.04991   0.26649   0.15271   1.00000  Uiso   1.00
C005   C     0.25103   0.04579   0.15597   1.00000  Uiso   1.00
C006   C     0.35117   0.10184   0.15670   1.00000  Uiso   1.00
C007   C     0.34994   0.21455   0.15584   1.00000  Uiso   1.00
C008   C     0.24867   0.26701   0.15355   1.00000  Uiso   1.00
C009   C     0.45119   0.04667   0.15825   1.00000  Uiso   1.00
C010   C     0.54997   0.10596   0.15894   1.00000  Uiso   1.00
C011   C     0.54998   0.22023   0.15906   1.00000  Uiso   1.00
C012   C     0.44759   0.27510   0.15790   1.00000  Uiso   1.00
C013   C     0.64876   0.04665   0.15881   1.00000  Uiso   1.00
C014   C     0.74879   0.10186   0.15775   1.00000  Uiso   1.00
C015   C     0.75004   0.21455   0.15695   1.00000  Uiso   1.00
C016   C     0.65246   0.27522   0.15823   1.00000  Uiso   1.00
C017   C     0.84888   0.04579   0.15706   1.00000  Uiso   1.00
C018   C     0.94966   0.10014   0.15577   1.00000  Uiso   1.00
C019   C     0.95034   0.21137   0.15440   1.00000  Uiso   1.00
C020   C     0.85120   0.26706   0.15498   1.00000  Uiso   1.00
C021   C     0.04988   0.37821   0.15107   1.00000  Uiso   1.00
C022   C     0.14775   0.43428   0.15043   1.00000  Uiso   1.00
C023   C     0.14776   0.54543   0.15048   1.00000  Uiso   1.00
C024   C     0.04988   0.60149   0.15116   1.00000  Uiso   1.00
C025   C     0.24639   0.37827   0.15213   1.00000  Uiso   1.00
C026   C     0.34329   0.43339   0.15476   1.00000  Uiso   1.00
C027   C     0.34330   0.54631   0.15488   1.00000  Uiso   1.00
C028   C     0.24639   0.60143   0.15226   1.00000  Uiso   1.00
C029   C     0.75654   0.43330   0.15611   1.00000  Uiso   1.00
C030   C     0.75654   0.54639   0.15623   1.00000  Uiso   1.00
C031   C     0.85345   0.37828   0.15395   1.00000  Uiso   1.00
C032   C     0.95203   0.43429   0.15181   1.00000  Uiso   1.00
C033   C     0.95203   0.54541   0.15186   1.00000  Uiso   1.00
C034   C     0.85345   0.60141   0.15407   1.00000  Uiso   1.00
C035   C     0.04991   0.71321   0.15286   1.00000  Uiso   1.00
C036   C     0.14953   0.76833   0.15371   1.00000  Uiso   1.00
C037   C     0.04995   0.93427   0.15564   1.00000  Uiso   1.00
C038   C     0.24867   0.71269   0.15374   1.00000  Uiso   1.00
C039   C     0.34995   0.76513   0.15604   1.00000  Uiso   1.00
C040   C     0.35117   0.87785   0.15680   1.00000  Uiso   1.00
C041   C     0.25103   0.93391   0.15602   1.00000  Uiso   1.00
C042   C     0.44761   0.70458   0.15816   1.00000  Uiso   1.00
C043   C     0.54998   0.75946   0.15929   1.00000  Uiso   1.00
C044   C     0.54997   0.87373   0.15905   1.00000  Uiso   1.00
C045   C     0.45119   0.93303   0.15831   1.00000  Uiso   1.00
C046   C     0.65246   0.70446   0.15849   1.00000  Uiso   1.00
C047   C     0.75003   0.76514   0.15714   1.00000  Uiso   1.00
C048   C     0.74878   0.87784   0.15785   1.00000  Uiso   1.00
C049   C     0.64876   0.93305   0.15886   1.00000  Uiso   1.00
C050   C     0.85119   0.71264   0.15516   1.00000  Uiso   1.00
C051   C     0.95034   0.76833   0.15455   1.00000  Uiso   1.00
C052   C     0.84888   0.93391   0.15711   1.00000  Uiso   1.00
C053   C     0.15022   0.87959   0.15517   1.00000  Uiso   1.00
C054   C     0.94966   0.87956   0.15587   1.00000  Uiso   1.00
N001   N     0.44179   0.38423   0.15883   1.00000  Uiso   1.00
N002   N     0.44179   0.59544   0.15915   1.00000  Uiso   1.00
N003   N     0.65841   0.38397   0.15853   1.00000  Uiso   1.00
N004   N     0.65841   0.59570   0.15887   1.00000  Uiso   1.00
N005   N     0.55804   0.48612   0.27605   1.00000  Uiso   1.00
O001   O     0.65247   0.48700   0.30657   1.00000  Uiso   1.00
Fe001  Fe    0.55035   0.48974   0.16569   1.00000  Uiso   1.00
H001   H     0.51108   0.55111   0.28600   1.00000  Uiso   1.00
H002   H     0.51416   0.41840   0.28381   1.00000  Uiso   1.00
loop_
_geom_bond_atom_site_label_1
_geom_bond_atom_site_label_2
_geom_bond_distance
_geom_bond_site_symmetry_2
_ccdc_geom_bond_type
C001   C002    1.433   .     D
C001   C018    1.433   1_455 S
C001   C037    1.417   1_545 S
C002   C003    1.419   .     S
C002   C005    1.437   .     S
C003   C004    1.429   .     D
C003   C008    1.427   .     S
C004   C019    1.429   1_455 S
C004   C021    1.425   .     S
C005   C006    1.440   .     S
C005   C041    1.426   1_545 D
C006   C007    1.437   .     S
C006   C009    1.434   .     D
C007   C008    1.431   .     S
C007   C012    1.444   .     D
C008   C025    1.419   .     D
C009   C010    1.447   .     S
C009   C045    1.449   1_545 S
C010   C011    1.457   .     D
C010   C013    1.447   .     S
C011   C012    1.457   .     S
C011   C016    1.459   .     S
C012   N001    1.393   .     S
C013   C014    1.434   .     D
C013   C049    1.448   1_545 S
C014   C015    1.437   .     S
C014   C017    1.440   .     S
C015   C016    1.443   .     S
C015   C020    1.430   .     D
C016   N003    1.389   .     D
C017   C018    1.437   .     S
C017   C052    1.426   1_545 D
C018   C001    1.433   1_655 S
C018   C019    1.418   .     D
C019   C004    1.429   1_655 S
C019   C020    1.427   .     S
C020   C031    1.419   .     S
C021   C022    1.416   .     D
C021   C032    1.416   1_455 S
C022   C023    1.417   .     S
C022   C025    1.424   .     S
C023   C024    1.416   .     D
C023   C028    1.424   .     S
C024   C033    1.416   1_455 S
C024   C035    1.425   .     S
C025   C026    1.400   .     S
C026   C027    1.440   .     S
C026   N001    1.383   .     D
C027   C028    1.400   .     S
C027   N002    1.383   .     D
C028   C038    1.419   .     D
C029   C030    1.442   .     S
C029   C031    1.399   .     D
C029   N003    1.378   .     S
C030   C034    1.399   .     S
C030   N004    1.378   .     D
C031   C032    1.424   .     S
C032   C021    1.416   1_655 S
C032   C033    1.417   .     D
C033   C024    1.416   1_655 S
C033   C034    1.424   .     S
C034   C050    1.419   .     D
C035   C036    1.429   .     S
C035   C051    1.429   1_455 D
C036   C038    1.427   .     S
C036   C053    1.419   .     D
C037   C001    1.417   1_565 S
C037   C053    1.433   .     S
C037   C054    1.433   1_455 D
C038   C039    1.431   .     S
C039   C040    1.437   .     S
C039   C042    1.444   .     D
C040   C041    1.440   .     S
C040   C045    1.434   .     D
C041   C005    1.426   1_565 D
C041   C053    1.437   .     S
C042   C043    1.457   .     S
C042   N002    1.393   .     S
C043   C044    1.457   .     S
C043   C046    1.459   .     D
C044   C045    1.447   .     S
C044   C049    1.447   .     D
C045   C009    1.449   1_565 S
C046   C047    1.443   .     S
C046   N004    1.389   .     S
C047   C048    1.437   .     D
C047   C050    1.430   .     S
C048   C049    1.434   .     S
C048   C052    1.440   .     S
C049   C013    1.448   1_565 S
C050   C051    1.427   .     S
C051   C035    1.429   1_655 D
C051   C054    1.418   .     S
C052   C017    1.426   1_565 D
C052   C054    1.437   .     S
C054   C037    1.433   1_655 D
N001   Fe001   1.915   .     S
N002   Fe001   1.916   .     S
N003   Fe001   1.913   .     S
N004   Fe001   1.914   .     S
N005   O001    1.328   .     S
N005   Fe001   2.211   .     S
N005   H001    1.034   .     S
N005   H002    1.034   .     S
