data_e-0.6-opt
_audit_creation_date              2024-12-22
_audit_creation_method            'Materials Studio'
_symmetry_space_group_name_H-M    'P1'
_symmetry_Int_Tables_number       1
_symmetry_cell_setting            triclinic
loop_
_symmetry_equiv_pos_as_xyz
  x,y,z
_cell_length_a                    12.4863
_cell_length_b                    12.7497
_cell_length_c                    20.0085
_cell_angle_alpha                 90.0000
_cell_angle_beta                  90.0000
_cell_angle_gamma                 90.0000
loop_
_atom_site_label
_atom_site_type_symbol
_atom_site_fract_x
_atom_site_fract_y
_atom_site_fract_z
_atom_site_U_iso_or_equiv
_atom_site_adp_type
_atom_site_occupancy
C001   C     0.04985   0.04541   0.15555   1.00000  Uiso   1.00
C002   C     0.15021   0.10013   0.15506   1.00000  Uiso   1.00
C003   C     0.14953   0.21143   0.15361   1.00000  Uiso   1.00
C004   C     0.04978   0.26655   0.15277   1.00000  Uiso   1.00
C005   C     0.25103   0.04582   0.15593   1.00000  Uiso   1.00
C006   C     0.35117   0.10195   0.15661   1.00000  Uiso   1.00
C007   C     0.35002   0.21464   0.15586   1.00000  Uiso   1.00
C008   C     0.24857   0.26706   0.15372   1.00000  Uiso   1.00
C009   C     0.45122   0.04666   0.15802   1.00000  Uiso   1.00
C010   C     0.54986   0.10579   0.15868   1.00000  Uiso   1.00
C011   C     0.54983   0.22023   0.15879   1.00000  Uiso   1.00
C012   C     0.44768   0.27519   0.15779   1.00000  Uiso   1.00
C013   C     0.64855   0.04664   0.15856   1.00000  Uiso   1.00
C014   C     0.74860   0.10195   0.15762   1.00000  Uiso   1.00
C015   C     0.74973   0.21460   0.15696   1.00000  Uiso   1.00
C016   C     0.65208   0.27527   0.15818   1.00000  Uiso   1.00
C017   C     0.84870   0.04582   0.15695   1.00000  Uiso   1.00
C018   C     0.94948   0.10017   0.15571   1.00000  Uiso   1.00
C019   C     0.95009   0.21144   0.15441   1.00000  Uiso   1.00
C020   C     0.85101   0.26713   0.15512   1.00000  Uiso   1.00
C021   C     0.04970   0.37811   0.15126   1.00000  Uiso   1.00
C022   C     0.14762   0.43426   0.15073   1.00000  Uiso   1.00
C023   C     0.14763   0.54543   0.15078   1.00000  Uiso   1.00
C024   C     0.04970   0.60157   0.15135   1.00000  Uiso   1.00
C025   C     0.24633   0.37836   0.15246   1.00000  Uiso   1.00
C026   C     0.34318   0.43367   0.15492   1.00000  Uiso   1.00
C027   C     0.34319   0.54602   0.15505   1.00000  Uiso   1.00
C028   C     0.24634   0.60132   0.15260   1.00000  Uiso   1.00
C029   C     0.75610   0.43358   0.15658   1.00000  Uiso   1.00
C030   C     0.75610   0.54610   0.15668   1.00000  Uiso   1.00
C031   C     0.85307   0.37843   0.15433   1.00000  Uiso   1.00
C032   C     0.95176   0.43427   0.15208   1.00000  Uiso   1.00
C033   C     0.95177   0.54541   0.15213   1.00000  Uiso   1.00
C034   C     0.85308   0.60125   0.15445   1.00000  Uiso   1.00
C035   C     0.04979   0.71313   0.15292   1.00000  Uiso   1.00
C036   C     0.14954   0.76825   0.15378   1.00000  Uiso   1.00
C037   C     0.04985   0.93428   0.15560   1.00000  Uiso   1.00
C038   C     0.24858   0.71262   0.15392   1.00000  Uiso   1.00
C039   C     0.35003   0.76503   0.15607   1.00000  Uiso   1.00
C040   C     0.35118   0.87772   0.15673   1.00000  Uiso   1.00
C041   C     0.25103   0.93386   0.15599   1.00000  Uiso   1.00
C042   C     0.44770   0.70447   0.15807   1.00000  Uiso   1.00
C043   C     0.54983   0.75944   0.15902   1.00000  Uiso   1.00
C044   C     0.54986   0.87388   0.15880   1.00000  Uiso   1.00
C045   C     0.45122   0.93301   0.15808   1.00000  Uiso   1.00
C046   C     0.65207   0.70439   0.15845   1.00000  Uiso   1.00
C047   C     0.74972   0.76507   0.15716   1.00000  Uiso   1.00
C048   C     0.74860   0.87773   0.15773   1.00000  Uiso   1.00
C049   C     0.64855   0.93304   0.15862   1.00000  Uiso   1.00
C050   C     0.85101   0.71256   0.15530   1.00000  Uiso   1.00
C051   C     0.95009   0.76824   0.15457   1.00000  Uiso   1.00
C052   C     0.84870   0.93386   0.15700   1.00000  Uiso   1.00
C053   C     0.15021   0.87955   0.15516   1.00000  Uiso   1.00
C054   C     0.94949   0.87952   0.15581   1.00000  Uiso   1.00
N001   N     0.44217   0.38456   0.15853   1.00000  Uiso   1.00
N002   N     0.44216   0.59510   0.15885   1.00000  Uiso   1.00
N003   N     0.65748   0.38417   0.15846   1.00000  Uiso   1.00
N004   N     0.65750   0.59549   0.15876   1.00000  Uiso   1.00
N005   N     0.55919   0.48615   0.27700   1.00000  Uiso   1.00
O001   O     0.65626   0.48717   0.30045   1.00000  Uiso   1.00
Fe001  Fe    0.54965   0.48971   0.16597   1.00000  Uiso   1.00
H001   H     0.51346   0.55183   0.28777   1.00000  Uiso   1.00
H002   H     0.51622   0.41798   0.28571   1.00000  Uiso   1.00
loop_
_geom_bond_atom_site_label_1
_geom_bond_atom_site_label_2
_geom_bond_distance
_geom_bond_site_symmetry_2
_ccdc_geom_bond_type
C001   C002    1.434   .     D
C001   C018    1.435   1_455 S
C001   C037    1.417   1_545 S
C002   C003    1.419   .     S
C002   C005    1.437   .     S
C003   C004    1.430   .     D
C003   C008    1.426   .     S
C004   C019    1.430   1_455 S
C004   C021    1.423   .     S
C005   C006    1.441   .     S
C005   C041    1.427   1_545 D
C006   C007    1.437   .     S
C006   C009    1.435   .     D
C007   C008    1.433   .     S
C007   C012    1.444   .     D
C008   C025    1.420   .     D
C009   C010    1.444   .     S
C009   C045    1.449   1_545 S
C010   C011    1.459   .     D
C010   C013    1.445   .     S
C011   C012    1.455   .     S
C011   C016    1.457   .     S
C012   N001    1.396   .     S
C013   C014    1.435   .     D
C013   C049    1.448   1_545 S
C014   C015    1.436   .     S
C014   C017    1.440   .     S
C015   C016    1.444   .     S
C015   C020    1.431   .     D
C016   N003    1.390   .     D
C017   C018    1.437   .     S
C017   C052    1.427   1_545 D
C018   C001    1.435   1_655 S
C018   C019    1.419   .     D
C019   C004    1.430   1_655 S
C019   C020    1.426   .     S
C020   C031    1.419   .     S
C021   C022    1.417   .     D
C021   C032    1.417   1_455 S
C022   C023    1.417   .     S
C022   C025    1.424   .     S
C023   C024    1.417   .     D
C023   C028    1.424   .     S
C024   C033    1.417   1_455 S
C024   C035    1.423   .     S
C025   C026    1.401   .     S
C026   C027    1.432   .     S
C026   N001    1.387   .     D
C027   C028    1.401   .     S
C027   N002    1.387   .     D
C028   C038    1.420   .     D
C029   C030    1.435   .     S
C029   C031    1.401   .     D
C029   N003    1.384   .     S
C030   C034    1.401   .     S
C030   N004    1.383   .     D
C031   C032    1.424   .     S
C032   C021    1.417   1_655 S
C032   C033    1.417   .     D
C033   C024    1.417   1_655 S
C033   C034    1.424   .     S
C034   C050    1.419   .     D
C035   C036    1.430   .     S
C035   C051    1.430   1_455 D
C036   C038    1.426   .     S
C036   C053    1.419   .     D
C037   C001    1.417   1_565 S
C037   C053    1.434   .     S
C037   C054    1.435   1_455 D
C038   C039    1.433   .     S
C039   C040    1.437   .     S
C039   C042    1.444   .     D
C040   C041    1.441   .     S
C040   C045    1.435   .     D
C041   C005    1.427   1_565 D
C041   C053    1.437   .     S
C042   C043    1.455   .     S
C042   N002    1.396   .     S
C043   C044    1.459   .     S
C043   C046    1.457   .     D
C044   C045    1.444   .     S
C044   C049    1.445   .     D
C045   C009    1.449   1_565 S
C046   C047    1.444   .     S
C046   N004    1.390   .     S
C047   C048    1.436   .     D
C047   C050    1.432   .     S
C048   C049    1.435   .     S
C048   C052    1.440   .     S
C049   C013    1.448   1_565 S
C050   C051    1.426   .     S
C051   C035    1.430   1_655 D
C051   C054    1.419   .     S
C052   C017    1.427   1_565 D
C052   C054    1.437   .     S
C054   C037    1.435   1_655 D
N001   Fe001   1.903   .     S
N002   Fe001   1.904   .     S
N003   Fe001   1.909   .     S
N004   Fe001   1.911   .     S
N005   O001    1.300   .     S
N005   Fe001   2.225   .     S
N005   H001    1.036   .     S
N005   H002    1.036   .     S
