data_e-0.2-opt
_audit_creation_date              2024-12-22
_audit_creation_method            'Materials Studio'
_symmetry_space_group_name_H-M    'P1'
_symmetry_Int_Tables_number       1
_symmetry_cell_setting            triclinic
loop_
_symmetry_equiv_pos_as_xyz
  x,y,z
_cell_length_a                    12.4863
_cell_length_b                    12.7497
_cell_length_c                    20.0085
_cell_angle_alpha                 90.0000
_cell_angle_beta                  90.0000
_cell_angle_gamma                 90.0000
loop_
_atom_site_label
_atom_site_type_symbol
_atom_site_fract_x
_atom_site_fract_y
_atom_site_fract_z
_atom_site_U_iso_or_equiv
_atom_site_adp_type
_atom_site_occupancy
C001   C     0.04992   0.04542   0.15557   1.00000  Uiso   1.00
C002   C     0.15029   0.10014   0.15506   1.00000  Uiso   1.00
C003   C     0.14962   0.21145   0.15354   1.00000  Uiso   1.00
C004   C     0.04987   0.26656   0.15270   1.00000  Uiso   1.00
C005   C     0.25111   0.04583   0.15600   1.00000  Uiso   1.00
C006   C     0.35125   0.10197   0.15671   1.00000  Uiso   1.00
C007   C     0.35011   0.21465   0.15582   1.00000  Uiso   1.00
C008   C     0.24866   0.26707   0.15357   1.00000  Uiso   1.00
C009   C     0.45132   0.04668   0.15825   1.00000  Uiso   1.00
C010   C     0.54994   0.10580   0.15891   1.00000  Uiso   1.00
C011   C     0.54993   0.22028   0.15891   1.00000  Uiso   1.00
C012   C     0.44778   0.27521   0.15774   1.00000  Uiso   1.00
C013   C     0.64859   0.04666   0.15883   1.00000  Uiso   1.00
C014   C     0.74866   0.10198   0.15780   1.00000  Uiso   1.00
C015   C     0.74980   0.21465   0.15700   1.00000  Uiso   1.00
C016   C     0.65217   0.27533   0.15819   1.00000  Uiso   1.00
C017   C     0.84875   0.04584   0.15710   1.00000  Uiso   1.00
C018   C     0.94955   0.10018   0.15577   1.00000  Uiso   1.00
C019   C     0.95017   0.21146   0.15441   1.00000  Uiso   1.00
C020   C     0.85111   0.26713   0.15507   1.00000  Uiso   1.00
C021   C     0.04982   0.37810   0.15112   1.00000  Uiso   1.00
C022   C     0.14773   0.43427   0.15049   1.00000  Uiso   1.00
C023   C     0.14773   0.54543   0.15054   1.00000  Uiso   1.00
C024   C     0.04982   0.60160   0.15121   1.00000  Uiso   1.00
C025   C     0.24644   0.37837   0.15217   1.00000  Uiso   1.00
C026   C     0.34325   0.43370   0.15460   1.00000  Uiso   1.00
C027   C     0.34327   0.54601   0.15471   1.00000  Uiso   1.00
C028   C     0.24644   0.60133   0.15231   1.00000  Uiso   1.00
C029   C     0.75635   0.43362   0.15634   1.00000  Uiso   1.00
C030   C     0.75635   0.54608   0.15645   1.00000  Uiso   1.00
C031   C     0.85323   0.37842   0.15416   1.00000  Uiso   1.00
C032   C     0.95191   0.43429   0.15194   1.00000  Uiso   1.00
C033   C     0.95191   0.54542   0.15199   1.00000  Uiso   1.00
C034   C     0.85323   0.60128   0.15428   1.00000  Uiso   1.00
C035   C     0.04988   0.71314   0.15285   1.00000  Uiso   1.00
C036   C     0.14963   0.76825   0.15371   1.00000  Uiso   1.00
C037   C     0.04993   0.93428   0.15562   1.00000  Uiso   1.00
C038   C     0.24867   0.71263   0.15376   1.00000  Uiso   1.00
C039   C     0.35012   0.76504   0.15601   1.00000  Uiso   1.00
C040   C     0.35126   0.87773   0.15682   1.00000  Uiso   1.00
C041   C     0.25112   0.93387   0.15605   1.00000  Uiso   1.00
C042   C     0.44780   0.70447   0.15801   1.00000  Uiso   1.00
C043   C     0.54993   0.75941   0.15912   1.00000  Uiso   1.00
C044   C     0.54994   0.87390   0.15902   1.00000  Uiso   1.00
C045   C     0.45133   0.93302   0.15830   1.00000  Uiso   1.00
C046   C     0.65216   0.70435   0.15844   1.00000  Uiso   1.00
C047   C     0.74980   0.76505   0.15718   1.00000  Uiso   1.00
C048   C     0.74866   0.87772   0.15790   1.00000  Uiso   1.00
C049   C     0.64859   0.93304   0.15888   1.00000  Uiso   1.00
C050   C     0.85111   0.71257   0.15524   1.00000  Uiso   1.00
C051   C     0.95017   0.76824   0.15456   1.00000  Uiso   1.00
C052   C     0.84875   0.93386   0.15715   1.00000  Uiso   1.00
C053   C     0.15029   0.87956   0.15516   1.00000  Uiso   1.00
C054   C     0.94955   0.87953   0.15587   1.00000  Uiso   1.00
N001   N     0.44228   0.38455   0.15840   1.00000  Uiso   1.00
N002   N     0.44228   0.59512   0.15872   1.00000  Uiso   1.00
N003   N     0.65766   0.38426   0.15837   1.00000  Uiso   1.00
N004   N     0.65766   0.59542   0.15869   1.00000  Uiso   1.00
N005   N     0.55828   0.48605   0.27689   1.00000  Uiso   1.00
O001   O     0.65405   0.48696   0.30362   1.00000  Uiso   1.00
Fe001  Fe    0.54998   0.48975   0.16604   1.00000  Uiso   1.00
H001   H     0.51190   0.55142   0.28707   1.00000  Uiso   1.00
H002   H     0.51482   0.41807   0.28486   1.00000  Uiso   1.00
loop_
_geom_bond_atom_site_label_1
_geom_bond_atom_site_label_2
_geom_bond_distance
_geom_bond_site_symmetry_2
_ccdc_geom_bond_type
C001   C002    1.434   .     D
C001   C018    1.435   1_455 S
C001   C037    1.417   1_545 S
C002   C003    1.419   .     S
C002   C005    1.437   .     S
C003   C004    1.430   .     D
C003   C008    1.426   .     S
C004   C019    1.430   1_455 S
C004   C021    1.422   .     S
C005   C006    1.441   .     S
C005   C041    1.428   1_545 D
C006   C007    1.437   .     S
C006   C009    1.435   .     D
C007   C008    1.433   .     S
C007   C012    1.444   .     D
C008   C025    1.420   .     D
C009   C010    1.444   .     S
C009   C045    1.449   1_545 S
C010   C011    1.460   .     D
C010   C013    1.444   .     S
C011   C012    1.455   .     S
C011   C016    1.457   .     S
C012   N001    1.396   .     S
C013   C014    1.435   .     D
C013   C049    1.449   1_545 S
C014   C015    1.437   .     S
C014   C017    1.440   .     S
C015   C016    1.444   .     S
C015   C020    1.432   .     D
C016   N003    1.391   .     D
C017   C018    1.437   .     S
C017   C052    1.428   1_545 D
C018   C001    1.435   1_655 S
C018   C019    1.419   .     D
C019   C004    1.430   1_655 S
C019   C020    1.426   .     S
C020   C031    1.419   .     S
C021   C022    1.417   .     D
C021   C032    1.417   1_455 S
C022   C023    1.417   .     S
C022   C025    1.424   .     S
C023   C024    1.417   .     D
C023   C028    1.424   .     S
C024   C033    1.417   1_455 S
C024   C035    1.422   .     S
C025   C026    1.400   .     S
C026   C027    1.432   .     S
C026   N001    1.388   .     D
C027   C028    1.400   .     S
C027   N002    1.388   .     D
C028   C038    1.420   .     D
C029   C030    1.434   .     S
C029   C031    1.400   .     D
C029   N003    1.384   .     S
C030   C034    1.400   .     S
C030   N004    1.384   .     D
C031   C032    1.424   .     S
C032   C021    1.417   1_655 S
C032   C033    1.417   .     D
C033   C024    1.417   1_655 S
C033   C034    1.424   .     S
C034   C050    1.419   .     D
C035   C036    1.430   .     S
C035   C051    1.430   1_455 D
C036   C038    1.426   .     S
C036   C053    1.419   .     D
C037   C001    1.417   1_565 S
C037   C053    1.434   .     S
C037   C054    1.435   1_455 D
C038   C039    1.433   .     S
C039   C040    1.437   .     S
C039   C042    1.444   .     D
C040   C041    1.441   .     S
C040   C045    1.435   .     D
C041   C005    1.428   1_565 D
C041   C053    1.437   .     S
C042   C043    1.455   .     S
C042   N002    1.396   .     S
C043   C044    1.460   .     S
C043   C046    1.457   .     D
C044   C045    1.444   .     S
C044   C049    1.444   .     D
C045   C009    1.449   1_565 S
C046   C047    1.444   .     S
C046   N004    1.391   .     S
C047   C048    1.437   .     D
C047   C050    1.432   .     S
C048   C049    1.435   .     S
C048   C052    1.440   .     S
C049   C013    1.449   1_565 S
C050   C051    1.426   .     S
C051   C035    1.430   1_655 D
C051   C054    1.419   .     S
C052   C017    1.428   1_565 D
C052   C054    1.437   .     S
C054   C037    1.435   1_655 D
N001   Fe001   1.905   .     S
N002   Fe001   1.907   .     S
N003   Fe001   1.908   .     S
N004   Fe001   1.909   .     S
N005   O001    1.310   .     S
N005   Fe001   2.221   .     S
N005   H001    1.035   .     S
N005   H002    1.035   .     S
