data_e+0.6-opt
_audit_creation_date              2024-12-22
_audit_creation_method            'Materials Studio'
_symmetry_space_group_name_H-M    'P1'
_symmetry_Int_Tables_number       1
_symmetry_cell_setting            triclinic
loop_
_symmetry_equiv_pos_as_xyz
  x,y,z
_cell_length_a                    12.4863
_cell_length_b                    12.7497
_cell_length_c                    20.0085
_cell_angle_alpha                 90.0000
_cell_angle_beta                  90.0000
_cell_angle_gamma                 90.0000
loop_
_atom_site_label
_atom_site_type_symbol
_atom_site_fract_x
_atom_site_fract_y
_atom_site_fract_z
_atom_site_U_iso_or_equiv
_atom_site_adp_type
_atom_site_occupancy
C001   C     0.04995   0.04541   0.15557   1.00000  Uiso   1.00
C002   C     0.15026   0.10012   0.15505   1.00000  Uiso   1.00
C003   C     0.14958   0.21139   0.15354   1.00000  Uiso   1.00
C004   C     0.04991   0.26651   0.15271   1.00000  Uiso   1.00
C005   C     0.25107   0.04580   0.15597   1.00000  Uiso   1.00
C006   C     0.35121   0.10189   0.15670   1.00000  Uiso   1.00
C007   C     0.35002   0.21457   0.15583   1.00000  Uiso   1.00
C008   C     0.24865   0.26702   0.15356   1.00000  Uiso   1.00
C009   C     0.45125   0.04667   0.15824   1.00000  Uiso   1.00
C010   C     0.54997   0.10590   0.15893   1.00000  Uiso   1.00
C011   C     0.54998   0.22025   0.15901   1.00000  Uiso   1.00
C012   C     0.44766   0.27514   0.15784   1.00000  Uiso   1.00
C013   C     0.64870   0.04665   0.15879   1.00000  Uiso   1.00
C014   C     0.74874   0.10191   0.15774   1.00000  Uiso   1.00
C015   C     0.74996   0.21457   0.15692   1.00000  Uiso   1.00
C016   C     0.65240   0.27528   0.15815   1.00000  Uiso   1.00
C017   C     0.84884   0.04580   0.15705   1.00000  Uiso   1.00
C018   C     0.94963   0.10015   0.15576   1.00000  Uiso   1.00
C019   C     0.95028   0.21139   0.15439   1.00000  Uiso   1.00
C020   C     0.85121   0.26707   0.15497   1.00000  Uiso   1.00
C021   C     0.04988   0.37816   0.15108   1.00000  Uiso   1.00
C022   C     0.14775   0.43426   0.15046   1.00000  Uiso   1.00
C023   C     0.14775   0.54545   0.15051   1.00000  Uiso   1.00
C024   C     0.04988   0.60154   0.15117   1.00000  Uiso   1.00
C025   C     0.24640   0.37830   0.15216   1.00000  Uiso   1.00
C026   C     0.34325   0.43351   0.15472   1.00000  Uiso   1.00
C027   C     0.34326   0.54619   0.15484   1.00000  Uiso   1.00
C028   C     0.24641   0.60140   0.15229   1.00000  Uiso   1.00
C029   C     0.75660   0.43342   0.15607   1.00000  Uiso   1.00
C030   C     0.75660   0.54627   0.15619   1.00000  Uiso   1.00
C031   C     0.85344   0.37832   0.15397   1.00000  Uiso   1.00
C032   C     0.95204   0.43427   0.15183   1.00000  Uiso   1.00
C033   C     0.95204   0.54543   0.15188   1.00000  Uiso   1.00
C034   C     0.85344   0.60138   0.15409   1.00000  Uiso   1.00
C035   C     0.04991   0.71318   0.15286   1.00000  Uiso   1.00
C036   C     0.14958   0.76831   0.15371   1.00000  Uiso   1.00
C037   C     0.04995   0.93429   0.15563   1.00000  Uiso   1.00
C038   C     0.24866   0.71268   0.15375   1.00000  Uiso   1.00
C039   C     0.35003   0.76512   0.15602   1.00000  Uiso   1.00
C040   C     0.35122   0.87780   0.15680   1.00000  Uiso   1.00
C041   C     0.25107   0.93390   0.15603   1.00000  Uiso   1.00
C042   C     0.44767   0.70454   0.15810   1.00000  Uiso   1.00
C043   C     0.54998   0.75944   0.15924   1.00000  Uiso   1.00
C044   C     0.54997   0.87379   0.15904   1.00000  Uiso   1.00
C045   C     0.45126   0.93303   0.15830   1.00000  Uiso   1.00
C046   C     0.65239   0.70441   0.15842   1.00000  Uiso   1.00
C047   C     0.74995   0.76512   0.15711   1.00000  Uiso   1.00
C048   C     0.74874   0.87779   0.15784   1.00000  Uiso   1.00
C049   C     0.64870   0.93304   0.15885   1.00000  Uiso   1.00
C050   C     0.85121   0.71263   0.15515   1.00000  Uiso   1.00
C051   C     0.95028   0.76831   0.15454   1.00000  Uiso   1.00
C052   C     0.84884   0.93390   0.15710   1.00000  Uiso   1.00
C053   C     0.15026   0.87958   0.15516   1.00000  Uiso   1.00
C054   C     0.94963   0.87955   0.15585   1.00000  Uiso   1.00
N001   N     0.44197   0.38431   0.15868   1.00000  Uiso   1.00
N002   N     0.44198   0.59536   0.15900   1.00000  Uiso   1.00
N003   N     0.65823   0.38408   0.15836   1.00000  Uiso   1.00
N004   N     0.65823   0.59560   0.15870   1.00000  Uiso   1.00
N005   N     0.55808   0.48612   0.27628   1.00000  Uiso   1.00
O001   O     0.65231   0.48699   0.30728   1.00000  Uiso   1.00
Fe001  Fe    0.55039   0.48975   0.16589   1.00000  Uiso   1.00
H001   H     0.51106   0.55107   0.28606   1.00000  Uiso   1.00
H002   H     0.51415   0.41843   0.28388   1.00000  Uiso   1.00
loop_
_geom_bond_atom_site_label_1
_geom_bond_atom_site_label_2
_geom_bond_distance
_geom_bond_site_symmetry_2
_ccdc_geom_bond_type
C001   C002    1.434   .     D
C001   C018    1.434   1_455 S
C001   C037    1.417   1_545 S
C002   C003    1.419   .     S
C002   C005    1.437   .     S
C003   C004    1.429   .     D
C003   C008    1.426   .     S
C004   C019    1.429   1_455 S
C004   C021    1.424   .     S
C005   C006    1.441   .     S
C005   C041    1.427   1_545 D
C006   C007    1.437   .     S
C006   C009    1.434   .     D
C007   C008    1.432   .     S
C007   C012    1.444   .     D
C008   C025    1.419   .     D
C009   C010    1.446   .     S
C009   C045    1.449   1_545 S
C010   C011    1.458   .     D
C010   C013    1.446   .     S
C011   C012    1.457   .     S
C011   C016    1.459   .     S
C012   N001    1.394   .     S
C013   C014    1.434   .     D
C013   C049    1.449   1_545 S
C014   C015    1.437   .     S
C014   C017    1.440   .     S
C015   C016    1.443   .     S
C015   C020    1.431   .     D
C016   N003    1.389   .     D
C017   C018    1.437   .     S
C017   C052    1.427   1_545 D
C018   C001    1.434   1_655 S
C018   C019    1.419   .     D
C019   C004    1.429   1_655 S
C019   C020    1.426   .     S
C020   C031    1.419   .     S
C021   C022    1.416   .     D
C021   C032    1.416   1_455 S
C022   C023    1.418   .     S
C022   C025    1.424   .     S
C023   C024    1.416   .     D
C023   C028    1.424   .     S
C024   C033    1.416   1_455 S
C024   C035    1.424   .     S
C025   C026    1.400   .     S
C026   C027    1.437   .     S
C026   N001    1.385   .     D
C027   C028    1.400   .     S
C027   N002    1.385   .     D
C028   C038    1.419   .     D
C029   C030    1.439   .     S
C029   C031    1.399   .     D
C029   N003    1.381   .     S
C030   C034    1.399   .     S
C030   N004    1.381   .     D
C031   C032    1.423   .     S
C032   C021    1.416   1_655 S
C032   C033    1.417   .     D
C033   C024    1.416   1_655 S
C033   C034    1.423   .     S
C034   C050    1.419   .     D
C035   C036    1.429   .     S
C035   C051    1.429   1_455 D
C036   C038    1.426   .     S
C036   C053    1.419   .     D
C037   C001    1.417   1_565 S
C037   C053    1.434   .     S
C037   C054    1.434   1_455 D
C038   C039    1.432   .     S
C039   C040    1.437   .     S
C039   C042    1.444   .     D
C040   C041    1.441   .     S
C040   C045    1.434   .     D
C041   C005    1.427   1_565 D
C041   C053    1.437   .     S
C042   C043    1.457   .     S
C042   N002    1.394   .     S
C043   C044    1.458   .     S
C043   C046    1.459   .     D
C044   C045    1.446   .     S
C044   C049    1.446   .     D
C045   C009    1.449   1_565 S
C046   C047    1.444   .     S
C046   N004    1.389   .     S
C047   C048    1.437   .     D
C047   C050    1.431   .     S
C048   C049    1.434   .     S
C048   C052    1.440   .     S
C049   C013    1.449   1_565 S
C050   C051    1.426   .     S
C051   C035    1.429   1_655 D
C051   C054    1.419   .     S
C052   C017    1.427   1_565 D
C052   C054    1.437   .     S
C054   C037    1.434   1_655 D
N001   Fe001   1.913   .     S
N002   Fe001   1.914   .     S
N003   Fe001   1.911   .     S
N004   Fe001   1.912   .     S
N005   O001    1.330   .     S
N005   Fe001   2.211   .     S
N005   H001    1.034   .     S
N005   H002    1.034   .     S
