data_e+1.0-opt
_audit_creation_date              2024-12-22
_audit_creation_method            'Materials Studio'
_symmetry_space_group_name_H-M    'P1'
_symmetry_Int_Tables_number       1
_symmetry_cell_setting            triclinic
loop_
_symmetry_equiv_pos_as_xyz
  x,y,z
_cell_length_a                    12.4863
_cell_length_b                    12.7497
_cell_length_c                    20.0085
_cell_angle_alpha                 90.0000
_cell_angle_beta                  90.0000
_cell_angle_gamma                 90.0000
loop_
_atom_site_label
_atom_site_type_symbol
_atom_site_fract_x
_atom_site_fract_y
_atom_site_fract_z
_atom_site_U_iso_or_equiv
_atom_site_adp_type
_atom_site_occupancy
C001   C     0.04995   0.04545   0.15560   1.00000  Uiso   1.00
C002   C     0.15019   0.10010   0.15506   1.00000  Uiso   1.00
C003   C     0.14949   0.21133   0.15354   1.00000  Uiso   1.00
C004   C     0.04991   0.26646   0.15271   1.00000  Uiso   1.00
C005   C     0.25100   0.04577   0.15598   1.00000  Uiso   1.00
C006   C     0.35112   0.10178   0.15671   1.00000  Uiso   1.00
C007   C     0.34988   0.21453   0.15584   1.00000  Uiso   1.00
C008   C     0.24867   0.26697   0.15353   1.00000  Uiso   1.00
C009   C     0.45115   0.04668   0.15827   1.00000  Uiso   1.00
C010   C     0.54997   0.10599   0.15896   1.00000  Uiso   1.00
C011   C     0.54998   0.22020   0.15910   1.00000  Uiso   1.00
C012   C     0.44754   0.27503   0.15792   1.00000  Uiso   1.00
C013   C     0.64880   0.04666   0.15884   1.00000  Uiso   1.00
C014   C     0.74884   0.10180   0.15778   1.00000  Uiso   1.00
C015   C     0.75010   0.21452   0.15697   1.00000  Uiso   1.00
C016   C     0.65252   0.27514   0.15827   1.00000  Uiso   1.00
C017   C     0.84891   0.04577   0.15708   1.00000  Uiso   1.00
C018   C     0.94970   0.10012   0.15578   1.00000  Uiso   1.00
C019   C     0.95038   0.21134   0.15441   1.00000  Uiso   1.00
C020   C     0.85120   0.26703   0.15499   1.00000  Uiso   1.00
C021   C     0.04988   0.37827   0.15105   1.00000  Uiso   1.00
C022   C     0.14775   0.43428   0.15039   1.00000  Uiso   1.00
C023   C     0.14776   0.54542   0.15044   1.00000  Uiso   1.00
C024   C     0.04988   0.60143   0.15115   1.00000  Uiso   1.00
C025   C     0.24638   0.37824   0.15207   1.00000  Uiso   1.00
C026   C     0.34334   0.43327   0.15476   1.00000  Uiso   1.00
C027   C     0.34335   0.54643   0.15488   1.00000  Uiso   1.00
C028   C     0.24639   0.60146   0.15220   1.00000  Uiso   1.00
C029   C     0.75648   0.43318   0.15613   1.00000  Uiso   1.00
C030   C     0.75648   0.54651   0.15625   1.00000  Uiso   1.00
C031   C     0.85345   0.37825   0.15394   1.00000  Uiso   1.00
C032   C     0.95203   0.43429   0.15180   1.00000  Uiso   1.00
C033   C     0.95203   0.54541   0.15185   1.00000  Uiso   1.00
C034   C     0.85345   0.60145   0.15406   1.00000  Uiso   1.00
C035   C     0.04991   0.71324   0.15286   1.00000  Uiso   1.00
C036   C     0.14950   0.76837   0.15371   1.00000  Uiso   1.00
C037   C     0.04995   0.93426   0.15565   1.00000  Uiso   1.00
C038   C     0.24868   0.71272   0.15372   1.00000  Uiso   1.00
C039   C     0.34990   0.76515   0.15604   1.00000  Uiso   1.00
C040   C     0.35113   0.87791   0.15682   1.00000  Uiso   1.00
C041   C     0.25100   0.93392   0.15603   1.00000  Uiso   1.00
C042   C     0.44755   0.70464   0.15819   1.00000  Uiso   1.00
C043   C     0.54998   0.75949   0.15932   1.00000  Uiso   1.00
C044   C     0.54997   0.87370   0.15907   1.00000  Uiso   1.00
C045   C     0.45115   0.93302   0.15833   1.00000  Uiso   1.00
C046   C     0.65251   0.70454   0.15854   1.00000  Uiso   1.00
C047   C     0.75009   0.76517   0.15716   1.00000  Uiso   1.00
C048   C     0.74883   0.87790   0.15787   1.00000  Uiso   1.00
C049   C     0.64880   0.93304   0.15889   1.00000  Uiso   1.00
C050   C     0.85119   0.71267   0.15516   1.00000  Uiso   1.00
C051   C     0.95038   0.76836   0.15456   1.00000  Uiso   1.00
C052   C     0.84891   0.93392   0.15713   1.00000  Uiso   1.00
C053   C     0.15019   0.87960   0.15517   1.00000  Uiso   1.00
C054   C     0.94970   0.87958   0.15588   1.00000  Uiso   1.00
N001   N     0.44162   0.38414   0.15892   1.00000  Uiso   1.00
N002   N     0.44163   0.59553   0.15924   1.00000  Uiso   1.00
N003   N     0.65856   0.38387   0.15865   1.00000  Uiso   1.00
N004   N     0.65857   0.59581   0.15898   1.00000  Uiso   1.00
N005   N     0.55797   0.48613   0.27587   1.00000  Uiso   1.00
O001   O     0.65246   0.48700   0.30623   1.00000  Uiso   1.00
Fe001  Fe    0.55033   0.48973   0.16558   1.00000  Uiso   1.00
H001   H     0.51111   0.55110   0.28597   1.00000  Uiso   1.00
H002   H     0.51417   0.41841   0.28376   1.00000  Uiso   1.00
loop_
_geom_bond_atom_site_label_1
_geom_bond_atom_site_label_2
_geom_bond_distance
_geom_bond_site_symmetry_2
_ccdc_geom_bond_type
C001   C002    1.433   .     D
C001   C018    1.433   1_455 S
C001   C037    1.418   1_545 S
C002   C003    1.419   .     S
C002   C005    1.437   .     S
C003   C004    1.428   .     D
C003   C008    1.427   .     S
C004   C019    1.428   1_455 S
C004   C021    1.426   .     S
C005   C006    1.440   .     S
C005   C041    1.426   1_545 D
C006   C007    1.438   .     S
C006   C009    1.433   .     D
C007   C008    1.430   .     S
C007   C012    1.443   .     D
C008   C025    1.419   .     D
C009   C010    1.447   .     S
C009   C045    1.449   1_545 S
C010   C011    1.456   .     D
C010   C013    1.447   .     S
C011   C012    1.458   .     S
C011   C016    1.460   .     S
C012   N001    1.393   .     S
C013   C014    1.433   .     D
C013   C049    1.449   1_545 S
C014   C015    1.437   .     S
C014   C017    1.439   .     S
C015   C016    1.443   .     S
C015   C020    1.429   .     D
C016   N003    1.388   .     D
C017   C018    1.437   .     S
C017   C052    1.426   1_545 D
C018   C001    1.433   1_655 S
C018   C019    1.418   .     D
C019   C004    1.428   1_655 S
C019   C020    1.428   .     S
C020   C031    1.418   .     S
C021   C022    1.416   .     D
C021   C032    1.415   1_455 S
C022   C023    1.417   .     S
C022   C025    1.424   .     S
C023   C024    1.416   .     D
C023   C028    1.424   .     S
C024   C033    1.415   1_455 S
C024   C035    1.426   .     S
C025   C026    1.400   .     S
C026   C027    1.443   .     S
C026   N001    1.380   .     D
C027   C028    1.400   .     S
C027   N002    1.380   .     D
C028   C038    1.419   .     D
C029   C030    1.445   .     S
C029   C031    1.400   .     D
C029   N003    1.376   .     S
C030   C034    1.400   .     S
C030   N004    1.376   .     D
C031   C032    1.424   .     S
C032   C021    1.415   1_655 S
C032   C033    1.417   .     D
C033   C024    1.415   1_655 S
C033   C034    1.424   .     S
C034   C050    1.419   .     D
C035   C036    1.428   .     S
C035   C051    1.428   1_455 D
C036   C038    1.427   .     S
C036   C053    1.419   .     D
C037   C001    1.418   1_565 S
C037   C053    1.433   .     S
C037   C054    1.433   1_455 D
C038   C039    1.431   .     S
C039   C040    1.438   .     S
C039   C042    1.444   .     D
C040   C041    1.440   .     S
C040   C045    1.433   .     D
C041   C005    1.426   1_565 D
C041   C053    1.437   .     S
C042   C043    1.458   .     S
C042   N002    1.393   .     S
C043   C044    1.456   .     S
C043   C046    1.460   .     D
C044   C045    1.447   .     S
C044   C049    1.447   .     D
C045   C009    1.449   1_565 S
C046   C047    1.443   .     S
C046   N004    1.388   .     S
C047   C048    1.437   .     D
C047   C050    1.429   .     S
C048   C049    1.433   .     S
C048   C052    1.439   .     S
C049   C013    1.449   1_565 S
C050   C051    1.428   .     S
C051   C035    1.428   1_655 D
C051   C054    1.418   .     S
C052   C017    1.426   1_565 D
C052   C054    1.437   .     S
C054   C037    1.433   1_655 D
N001   Fe001   1.916   .     S
N002   Fe001   1.918   .     S
N003   Fe001   1.915   .     S
N004   Fe001   1.917   .     S
N005   O001    1.327   .     S
N005   Fe001   2.209   .     S
N005   H001    1.034   .     S
N005   H002    1.034   .     S
