data_e+0.0-opt
_audit_creation_date              2024-12-22
_audit_creation_method            'Materials Studio'
_symmetry_space_group_name_H-M    'P1'
_symmetry_Int_Tables_number       1
_symmetry_cell_setting            triclinic
loop_
_symmetry_equiv_pos_as_xyz
  x,y,z
_cell_length_a                    8.3998
_cell_length_b                    8.3998
_cell_length_c                    20.0499
_cell_angle_alpha                 90.0000
_cell_angle_beta                  90.0000
_cell_angle_gamma                 90.0000
loop_
_atom_site_label
_atom_site_type_symbol
_atom_site_fract_x
_atom_site_fract_y
_atom_site_fract_z
_atom_site_U_iso_or_equiv
_atom_site_adp_type
_atom_site_occupancy
C001   C     0.49870   0.07252   0.13676   1.00000  Uiso   1.00
C002   C     0.35204   0.15425   0.13648   1.00000  Uiso   1.00
C003   C     0.64543   0.15410   0.13624   1.00000  Uiso   1.00
C004   C     0.79391   0.90261   0.13644   1.00000  Uiso   1.00
C005   C     0.79405   0.06987   0.13611   1.00000  Uiso   1.00
C006   C     0.91510   0.19088   0.13601   1.00000  Uiso   1.00
C007   C     0.83098   0.33957   0.13623   1.00000  Uiso   1.00
C008   C     0.20344   0.06996   0.13614   1.00000  Uiso   1.00
C009   C     0.08239   0.19097   0.13606   1.00000  Uiso   1.00
C010   C     0.16644   0.33968   0.13644   1.00000  Uiso   1.00
C011   C     0.08496   0.48644   0.13694   1.00000  Uiso   1.00
C012   C     0.16671   0.63302   0.13679   1.00000  Uiso   1.00
C013   C     0.35201   0.81840   0.13672   1.00000  Uiso   1.00
C014   C     0.20346   0.90268   0.13629   1.00000  Uiso   1.00
C015   C     0.08229   0.78164   0.13646   1.00000  Uiso   1.00
C016   C     0.64532   0.81843   0.13689   1.00000  Uiso   1.00
C017   C     0.83066   0.63299   0.13689   1.00000  Uiso   1.00
C018   C     0.91508   0.78160   0.13656   1.00000  Uiso   1.00
C019   C     0.49865   0.89998   0.13702   1.00000  Uiso   1.00
C020   C     0.91242   0.48640   0.13690   1.00000  Uiso   1.00
N001   N     0.66621   0.31893   0.13571   1.00000  Uiso   1.00
N002   N     0.33123   0.31920   0.13626   1.00000  Uiso   1.00
N003   N     0.33125   0.65383   0.13668   1.00000  Uiso   1.00
N004   N     0.66600   0.65380   0.13682   1.00000  Uiso   1.00
N005   N     0.50531   0.47065   0.23804   1.00000  Uiso   1.00
Fe001  Fe    0.49853   0.48735   0.14268   1.00000  Uiso   1.00
O001   O     0.48421   0.61944   0.27646   1.00000  Uiso   1.00
H001   H     0.41671   0.39393   0.25285   1.00000  Uiso   1.00
H002   H     0.50549   0.58985   0.32295   1.00000  Uiso   1.00
H003   H     0.61473   0.42450   0.25049   1.00000  Uiso   1.00
loop_
_geom_bond_atom_site_label_1
_geom_bond_atom_site_label_2
_geom_bond_distance
_geom_bond_site_symmetry_2
_ccdc_geom_bond_type
C001   C002    1.410   .     D
C001   C003    1.410   .     S
C001   C019    1.449   1_545 S
C002   C008    1.435   .     S
C002   N002    1.397   .     S
C003   C005    1.435   .     D
C003   N001    1.395   .     S
C004   C005    1.405   1_565 S
C004   C016    1.435   .     D
C004   C018    1.438   .     S
C005   C004    1.405   1_545 S
C005   C006    1.438   .     S
C006   C007    1.435   .     S
C006   C009    1.405   1_655 D
C007   C020    1.410   .     S
C007   N001    1.395   .     D
C008   C009    1.438   .     S
C008   C014    1.405   1_545 D
C009   C006    1.405   1_455 D
C009   C010    1.435   .     S
C010   C011    1.410   .     S
C010   N002    1.395   .     D
C011   C012    1.410   .     S
C011   C020    1.449   1_455 D
C012   C015    1.436   .     S
C012   N003    1.393   .     D
C013   C014    1.435   .     S
C013   C019    1.410   .     D
C013   N003    1.393   .     S
C014   C008    1.405   1_565 D
C014   C015    1.439   .     S
C015   C018    1.404   1_455 D
C016   C019    1.410   .     S
C016   N004    1.394   .     S
C017   C018    1.436   .     S
C017   C020    1.410   .     S
C017   N004    1.394   .     D
C018   C015    1.404   1_655 D
C019   C001    1.449   1_565 S
C020   C011    1.449   1_655 D
N001   Fe001   2.001   .     S
N002   Fe001   1.997   .     S
N003   Fe001   1.986   .     S
N004   Fe001   1.987   .     S
N005   Fe001   1.918   .     S
N005   O001    1.479   .     S
N005   H001    1.028   .     S
N005   H003    1.028   .     S
O001   H002    0.981   .     S
