data_e+0.4-opt
_audit_creation_date              2024-12-22
_audit_creation_method            'Materials Studio'
_symmetry_space_group_name_H-M    'P1'
_symmetry_Int_Tables_number       1
_symmetry_cell_setting            triclinic
loop_
_symmetry_equiv_pos_as_xyz
  x,y,z
_cell_length_a                    8.3998
_cell_length_b                    8.3998
_cell_length_c                    20.0499
_cell_angle_alpha                 90.0000
_cell_angle_beta                  90.0000
_cell_angle_gamma                 90.0000
loop_
_atom_site_label
_atom_site_type_symbol
_atom_site_fract_x
_atom_site_fract_y
_atom_site_fract_z
_atom_site_U_iso_or_equiv
_atom_site_adp_type
_atom_site_occupancy
C001   C     0.49870   0.07257   0.13685   1.00000  Uiso   1.00
C002   C     0.35204   0.15430   0.13662   1.00000  Uiso   1.00
C003   C     0.64543   0.15414   0.13633   1.00000  Uiso   1.00
C004   C     0.79391   0.90268   0.13644   1.00000  Uiso   1.00
C005   C     0.79406   0.06988   0.13619   1.00000  Uiso   1.00
C006   C     0.91514   0.19090   0.13616   1.00000  Uiso   1.00
C007   C     0.83101   0.33963   0.13634   1.00000  Uiso   1.00
C008   C     0.20342   0.06998   0.13627   1.00000  Uiso   1.00
C009   C     0.08235   0.19100   0.13620   1.00000  Uiso   1.00
C010   C     0.16640   0.33976   0.13659   1.00000  Uiso   1.00
C011   C     0.08495   0.48651   0.13703   1.00000  Uiso   1.00
C012   C     0.16670   0.63307   0.13681   1.00000  Uiso   1.00
C013   C     0.35200   0.81846   0.13672   1.00000  Uiso   1.00
C014   C     0.20344   0.90278   0.13634   1.00000  Uiso   1.00
C015   C     0.08224   0.78173   0.13649   1.00000  Uiso   1.00
C016   C     0.64530   0.81846   0.13686   1.00000  Uiso   1.00
C017   C     0.83066   0.63303   0.13689   1.00000  Uiso   1.00
C018   C     0.91511   0.78167   0.13656   1.00000  Uiso   1.00
C019   C     0.49865   0.90001   0.13704   1.00000  Uiso   1.00
C020   C     0.91242   0.48646   0.13698   1.00000  Uiso   1.00
N001   N     0.66635   0.31888   0.13578   1.00000  Uiso   1.00
N002   N     0.33113   0.31920   0.13642   1.00000  Uiso   1.00
N003   N     0.33112   0.65397   0.13669   1.00000  Uiso   1.00
N004   N     0.66609   0.65390   0.13684   1.00000  Uiso   1.00
N005   N     0.50538   0.46984   0.23701   1.00000  Uiso   1.00
Fe001  Fe    0.49850   0.48731   0.14276   1.00000  Uiso   1.00
O001   O     0.48364   0.62022   0.27685   1.00000  Uiso   1.00
H001   H     0.41663   0.39374   0.25224   1.00000  Uiso   1.00
H002   H     0.50599   0.58877   0.32305   1.00000  Uiso   1.00
H003   H     0.61491   0.42464   0.24995   1.00000  Uiso   1.00
loop_
_geom_bond_atom_site_label_1
_geom_bond_atom_site_label_2
_geom_bond_distance
_geom_bond_site_symmetry_2
_ccdc_geom_bond_type
C001   C002    1.410   .     D
C001   C003    1.410   .     S
C001   C019    1.449   1_545 S
C002   C008    1.435   .     S
C002   N002    1.396   .     S
C003   C005    1.435   .     D
C003   N001    1.395   .     S
C004   C005    1.404   1_565 S
C004   C016    1.435   .     D
C004   C018    1.439   .     S
C005   C004    1.404   1_545 S
C005   C006    1.438   .     S
C006   C007    1.435   .     S
C006   C009    1.405   1_655 D
C007   C020    1.410   .     S
C007   N001    1.394   .     D
C008   C009    1.438   .     S
C008   C014    1.404   1_545 D
C009   C006    1.405   1_455 D
C009   C010    1.435   .     S
C010   C011    1.410   .     S
C010   N002    1.394   .     D
C011   C012    1.410   .     S
C011   C020    1.449   1_455 D
C012   C015    1.436   .     S
C012   N003    1.392   .     D
C013   C014    1.435   .     S
C013   C019    1.409   .     D
C013   N003    1.393   .     S
C014   C008    1.404   1_565 D
C014   C015    1.439   .     S
C015   C018    1.404   1_455 D
C016   C019    1.410   .     S
C016   N004    1.393   .     S
C017   C018    1.436   .     S
C017   C020    1.410   .     S
C017   N004    1.393   .     D
C018   C015    1.404   1_655 D
C019   C001    1.449   1_565 S
C020   C011    1.449   1_655 D
N001   Fe001   2.002   .     S
N002   Fe001   1.997   .     S
N003   Fe001   1.988   .     S
N004   Fe001   1.988   .     S
N005   Fe001   1.896   .     S
N005   O001    1.506   .     S
N005   H001    1.028   .     S
N005   H003    1.029   .     S
O001   H002    0.981   .     S
