data_e+0.6-opt
_audit_creation_date              2024-12-22
_audit_creation_method            'Materials Studio'
_symmetry_space_group_name_H-M    'P1'
_symmetry_Int_Tables_number       1
_symmetry_cell_setting            triclinic
loop_
_symmetry_equiv_pos_as_xyz
  x,y,z
_cell_length_a                    8.3998
_cell_length_b                    8.3998
_cell_length_c                    20.0499
_cell_angle_alpha                 90.0000
_cell_angle_beta                  90.0000
_cell_angle_gamma                 90.0000
loop_
_atom_site_label
_atom_site_type_symbol
_atom_site_fract_x
_atom_site_fract_y
_atom_site_fract_z
_atom_site_U_iso_or_equiv
_atom_site_adp_type
_atom_site_occupancy
C001   C     0.49870   0.07253   0.13680   1.00000  Uiso   1.00
C002   C     0.35207   0.15429   0.13654   1.00000  Uiso   1.00
C003   C     0.64539   0.15413   0.13628   1.00000  Uiso   1.00
C004   C     0.79395   0.90278   0.13643   1.00000  Uiso   1.00
C005   C     0.79411   0.06977   0.13614   1.00000  Uiso   1.00
C006   C     0.91524   0.19082   0.13607   1.00000  Uiso   1.00
C007   C     0.83100   0.33963   0.13628   1.00000  Uiso   1.00
C008   C     0.20336   0.06986   0.13620   1.00000  Uiso   1.00
C009   C     0.08225   0.19092   0.13612   1.00000  Uiso   1.00
C010   C     0.16642   0.33975   0.13651   1.00000  Uiso   1.00
C011   C     0.08492   0.48645   0.13698   1.00000  Uiso   1.00
C012   C     0.16671   0.63299   0.13679   1.00000  Uiso   1.00
C013   C     0.35202   0.81846   0.13672   1.00000  Uiso   1.00
C014   C     0.20340   0.90286   0.13631   1.00000  Uiso   1.00
C015   C     0.08212   0.78174   0.13646   1.00000  Uiso   1.00
C016   C     0.64529   0.81848   0.13686   1.00000  Uiso   1.00
C017   C     0.83066   0.63296   0.13688   1.00000  Uiso   1.00
C018   C     0.91523   0.78169   0.13654   1.00000  Uiso   1.00
C019   C     0.49865   0.90003   0.13702   1.00000  Uiso   1.00
C020   C     0.91246   0.48641   0.13694   1.00000  Uiso   1.00
N001   N     0.66637   0.31883   0.13582   1.00000  Uiso   1.00
N002   N     0.33110   0.31912   0.13641   1.00000  Uiso   1.00
N003   N     0.33109   0.65395   0.13678   1.00000  Uiso   1.00
N004   N     0.66614   0.65390   0.13691   1.00000  Uiso   1.00
N005   N     0.50536   0.47015   0.23745   1.00000  Uiso   1.00
Fe001  Fe    0.49855   0.48734   0.14267   1.00000  Uiso   1.00
O001   O     0.48399   0.61989   0.27659   1.00000  Uiso   1.00
H001   H     0.41670   0.39382   0.25259   1.00000  Uiso   1.00
H002   H     0.50562   0.58944   0.32295   1.00000  Uiso   1.00
H003   H     0.61480   0.42449   0.25026   1.00000  Uiso   1.00
loop_
_geom_bond_atom_site_label_1
_geom_bond_atom_site_label_2
_geom_bond_distance
_geom_bond_site_symmetry_2
_ccdc_geom_bond_type
C001   C002    1.410   .     D
C001   C003    1.410   .     S
C001   C019    1.449   1_545 S
C002   C008    1.436   .     S
C002   N002    1.396   .     S
C003   C005    1.436   .     D
C003   N001    1.395   .     S
C004   C005    1.403   1_565 S
C004   C016    1.435   .     D
C004   C018    1.440   .     S
C005   C004    1.403   1_545 S
C005   C006    1.438   .     S
C006   C007    1.436   .     S
C006   C009    1.403   1_655 D
C007   C020    1.410   .     S
C007   N001    1.394   .     D
C008   C009    1.438   .     S
C008   C014    1.403   1_545 D
C009   C006    1.403   1_455 D
C009   C010    1.436   .     S
C010   C011    1.410   .     S
C010   N002    1.394   .     D
C011   C012    1.410   .     S
C011   C020    1.449   1_455 D
C012   C015    1.437   .     S
C012   N003    1.392   .     D
C013   C014    1.436   .     S
C013   C019    1.409   .     D
C013   N003    1.393   .     S
C014   C008    1.403   1_565 D
C014   C015    1.440   .     S
C015   C018    1.402   1_455 D
C016   C019    1.409   .     S
C016   N004    1.394   .     S
C017   C018    1.437   .     S
C017   C020    1.410   .     S
C017   N004    1.393   .     D
C018   C015    1.402   1_655 D
C019   C001    1.449   1_565 S
C020   C011    1.449   1_655 D
N001   Fe001   2.002   .     S
N002   Fe001   1.998   .     S
N003   Fe001   1.988   .     S
N004   Fe001   1.988   .     S
N005   Fe001   1.907   .     S
N005   O001    1.493   .     S
N005   H001    1.029   .     S
N005   H003    1.029   .     S
O001   H002    0.981   .     S
