data_e+0.8-opt
_audit_creation_date              2024-12-22
_audit_creation_method            'Materials Studio'
_symmetry_space_group_name_H-M    'P1'
_symmetry_Int_Tables_number       1
_symmetry_cell_setting            triclinic
loop_
_symmetry_equiv_pos_as_xyz
  x,y,z
_cell_length_a                    8.3998
_cell_length_b                    8.3998
_cell_length_c                    20.0499
_cell_angle_alpha                 90.0000
_cell_angle_beta                  90.0000
_cell_angle_gamma                 90.0000
loop_
_atom_site_label
_atom_site_type_symbol
_atom_site_fract_x
_atom_site_fract_y
_atom_site_fract_z
_atom_site_U_iso_or_equiv
_atom_site_adp_type
_atom_site_occupancy
C001   C     0.49870   0.07253   0.13680   1.00000  Uiso   1.00
C002   C     0.35209   0.15429   0.13653   1.00000  Uiso   1.00
C003   C     0.64537   0.15414   0.13627   1.00000  Uiso   1.00
C004   C     0.79397   0.90285   0.13642   1.00000  Uiso   1.00
C005   C     0.79414   0.06970   0.13613   1.00000  Uiso   1.00
C006   C     0.91531   0.19078   0.13607   1.00000  Uiso   1.00
C007   C     0.83100   0.33964   0.13627   1.00000  Uiso   1.00
C008   C     0.20333   0.06979   0.13619   1.00000  Uiso   1.00
C009   C     0.08218   0.19087   0.13612   1.00000  Uiso   1.00
C010   C     0.16642   0.33976   0.13650   1.00000  Uiso   1.00
C011   C     0.08492   0.48643   0.13698   1.00000  Uiso   1.00
C012   C     0.16672   0.63296   0.13679   1.00000  Uiso   1.00
C013   C     0.35203   0.81848   0.13672   1.00000  Uiso   1.00
C014   C     0.20338   0.90293   0.13631   1.00000  Uiso   1.00
C015   C     0.08205   0.78178   0.13645   1.00000  Uiso   1.00
C016   C     0.64529   0.81850   0.13686   1.00000  Uiso   1.00
C017   C     0.83065   0.63292   0.13687   1.00000  Uiso   1.00
C018   C     0.91531   0.78172   0.13653   1.00000  Uiso   1.00
C019   C     0.49865   0.90005   0.13702   1.00000  Uiso   1.00
C020   C     0.91246   0.48639   0.13694   1.00000  Uiso   1.00
N001   N     0.66642   0.31879   0.13586   1.00000  Uiso   1.00
N002   N     0.33106   0.31907   0.13644   1.00000  Uiso   1.00
N003   N     0.33104   0.65397   0.13682   1.00000  Uiso   1.00
N004   N     0.66620   0.65392   0.13695   1.00000  Uiso   1.00
N005   N     0.50535   0.47023   0.23749   1.00000  Uiso   1.00
Fe001  Fe    0.49858   0.48739   0.14261   1.00000  Uiso   1.00
O001   O     0.48403   0.61979   0.27656   1.00000  Uiso   1.00
H001   H     0.41673   0.39384   0.25262   1.00000  Uiso   1.00
H002   H     0.50558   0.58948   0.32295   1.00000  Uiso   1.00
H003   H     0.61476   0.42450   0.25028   1.00000  Uiso   1.00
loop_
_geom_bond_atom_site_label_1
_geom_bond_atom_site_label_2
_geom_bond_distance
_geom_bond_site_symmetry_2
_ccdc_geom_bond_type
C001   C002    1.410   .     D
C001   C003    1.410   .     S
C001   C019    1.449   1_545 S
C002   C008    1.437   .     S
C002   N002    1.395   .     S
C003   C005    1.437   .     D
C003   N001    1.394   .     S
C004   C005    1.402   1_565 S
C004   C016    1.436   .     D
C004   C018    1.440   .     S
C005   C004    1.402   1_545 S
C005   C006    1.439   .     S
C006   C007    1.437   .     S
C006   C009    1.402   1_655 D
C007   C020    1.410   .     S
C007   N001    1.394   .     D
C008   C009    1.439   .     S
C008   C014    1.402   1_545 D
C009   C006    1.402   1_455 D
C009   C010    1.437   .     S
C010   C011    1.409   .     S
C010   N002    1.394   .     D
C011   C012    1.410   .     S
C011   C020    1.449   1_455 D
C012   C015    1.438   .     S
C012   N003    1.392   .     D
C013   C014    1.436   .     S
C013   C019    1.409   .     D
C013   N003    1.393   .     S
C014   C008    1.402   1_565 D
C014   C015    1.440   .     S
C015   C018    1.401   1_455 D
C016   C019    1.409   .     S
C016   N004    1.394   .     S
C017   C018    1.438   .     S
C017   C020    1.410   .     S
C017   N004    1.393   .     D
C018   C015    1.401   1_655 D
C019   C001    1.449   1_565 S
C020   C011    1.449   1_655 D
N001   Fe001   2.003   .     S
N002   Fe001   1.999   .     S
N003   Fe001   1.988   .     S
N004   Fe001   1.988   .     S
N005   Fe001   1.909   .     S
N005   O001    1.491   .     S
N005   H001    1.029   .     S
N005   H003    1.029   .     S
O001   H002    0.981   .     S
