data_e-1.0-opt
_audit_creation_date              2024-12-22
_audit_creation_method            'Materials Studio'
_symmetry_space_group_name_H-M    'P1'
_symmetry_Int_Tables_number       1
_symmetry_cell_setting            triclinic
loop_
_symmetry_equiv_pos_as_xyz
  x,y,z
_cell_length_a                    8.3998
_cell_length_b                    8.3998
_cell_length_c                    20.0499
_cell_angle_alpha                 90.0000
_cell_angle_beta                  90.0000
_cell_angle_gamma                 90.0000
loop_
_atom_site_label
_atom_site_type_symbol
_atom_site_fract_x
_atom_site_fract_y
_atom_site_fract_z
_atom_site_U_iso_or_equiv
_atom_site_adp_type
_atom_site_occupancy
C001   C     0.49869   0.07248   0.13657   1.00000  Uiso   1.00
C002   C     0.35205   0.15428   0.13628   1.00000  Uiso   1.00
C003   C     0.64540   0.15416   0.13599   1.00000  Uiso   1.00
C004   C     0.79390   0.90269   0.13605   1.00000  Uiso   1.00
C005   C     0.79409   0.06976   0.13575   1.00000  Uiso   1.00
C006   C     0.91520   0.19079   0.13570   1.00000  Uiso   1.00
C007   C     0.83092   0.33955   0.13601   1.00000  Uiso   1.00
C008   C     0.20337   0.06983   0.13587   1.00000  Uiso   1.00
C009   C     0.08229   0.19087   0.13580   1.00000  Uiso   1.00
C010   C     0.16654   0.33966   0.13631   1.00000  Uiso   1.00
C011   C     0.08495   0.48636   0.13682   1.00000  Uiso   1.00
C012   C     0.16683   0.63290   0.13674   1.00000  Uiso   1.00
C013   C     0.35204   0.81832   0.13675   1.00000  Uiso   1.00
C014   C     0.20348   0.90274   0.13604   1.00000  Uiso   1.00
C015   C     0.08219   0.78161   0.13611   1.00000  Uiso   1.00
C016   C     0.64531   0.81836   0.13675   1.00000  Uiso   1.00
C017   C     0.83061   0.63289   0.13667   1.00000  Uiso   1.00
C018   C     0.91521   0.78158   0.13612   1.00000  Uiso   1.00
C019   C     0.49866   0.89999   0.13694   1.00000  Uiso   1.00
C020   C     0.91246   0.48633   0.13671   1.00000  Uiso   1.00
N001   N     0.66614   0.31894   0.13558   1.00000  Uiso   1.00
N002   N     0.33134   0.31915   0.13618   1.00000  Uiso   1.00
N003   N     0.33142   0.65354   0.13695   1.00000  Uiso   1.00
N004   N     0.66593   0.65355   0.13686   1.00000  Uiso   1.00
N005   N     0.50597   0.46998   0.23973   1.00000  Uiso   1.00
Fe001  Fe    0.49880   0.48708   0.14328   1.00000  Uiso   1.00
O001   O     0.48595   0.61921   0.27488   1.00000  Uiso   1.00
H001   H     0.41739   0.39341   0.25485   1.00000  Uiso   1.00
H002   H     0.50183   0.59475   0.32243   1.00000  Uiso   1.00
H003   H     0.61472   0.42273   0.25258   1.00000  Uiso   1.00
loop_
_geom_bond_atom_site_label_1
_geom_bond_atom_site_label_2
_geom_bond_distance
_geom_bond_site_symmetry_2
_ccdc_geom_bond_type
C001   C002    1.410   .     D
C001   C003    1.410   .     S
C001   C019    1.449   1_545 S
C002   C008    1.436   .     S
C002   N002    1.396   .     S
C003   C005    1.436   .     D
C003   N001    1.395   .     S
C004   C005    1.403   1_565 S
C004   C016    1.435   .     D
C004   C018    1.440   .     S
C005   C004    1.403   1_545 S
C005   C006    1.438   .     S
C006   C007    1.436   .     S
C006   C009    1.404   1_655 D
C007   C020    1.410   .     S
C007   N001    1.395   .     D
C008   C009    1.438   .     S
C008   C014    1.404   1_545 D
C009   C006    1.404   1_455 D
C009   C010    1.436   .     S
C010   C011    1.410   .     S
C010   N002    1.395   .     D
C011   C012    1.410   .     S
C011   C020    1.449   1_455 D
C012   C015    1.437   .     S
C012   N003    1.393   .     D
C013   C014    1.435   .     S
C013   C019    1.410   .     D
C013   N003    1.395   .     S
C014   C008    1.404   1_565 D
C014   C015    1.440   .     S
C015   C018    1.403   1_455 D
C016   C019    1.410   .     S
C016   N004    1.395   .     S
C017   C018    1.437   .     S
C017   C020    1.410   .     S
C017   N004    1.394   .     D
C018   C015    1.403   1_655 D
C019   C001    1.449   1_565 S
C020   C011    1.449   1_655 D
N001   Fe001   1.999   .     S
N002   Fe001   1.997   .     S
N003   Fe001   1.987   .     S
N004   Fe001   1.986   .     S
N005   Fe001   1.940   .     S
N005   O001    1.448   .     S
N005   H001    1.029   .     S
N005   H003    1.029   .     S
O001   H002    0.984   .     S
