data_e-0.8-opt
_audit_creation_date              2024-12-22
_audit_creation_method            'Materials Studio'
_symmetry_space_group_name_H-M    'P1'
_symmetry_Int_Tables_number       1
_symmetry_cell_setting            triclinic
loop_
_symmetry_equiv_pos_as_xyz
  x,y,z
_cell_length_a                    8.3998
_cell_length_b                    8.3998
_cell_length_c                    20.0499
_cell_angle_alpha                 90.0000
_cell_angle_beta                  90.0000
_cell_angle_gamma                 90.0000
loop_
_atom_site_label
_atom_site_type_symbol
_atom_site_fract_x
_atom_site_fract_y
_atom_site_fract_z
_atom_site_U_iso_or_equiv
_atom_site_adp_type
_atom_site_occupancy
C001   C     0.49868   0.07257   0.13667   1.00000  Uiso   1.00
C002   C     0.35203   0.15432   0.13637   1.00000  Uiso   1.00
C003   C     0.64540   0.15419   0.13611   1.00000  Uiso   1.00
C004   C     0.79390   0.90271   0.13624   1.00000  Uiso   1.00
C005   C     0.79405   0.06987   0.13596   1.00000  Uiso   1.00
C006   C     0.91514   0.19089   0.13591   1.00000  Uiso   1.00
C007   C     0.83093   0.33961   0.13613   1.00000  Uiso   1.00
C008   C     0.20339   0.06994   0.13605   1.00000  Uiso   1.00
C009   C     0.08232   0.19096   0.13599   1.00000  Uiso   1.00
C010   C     0.16648   0.33971   0.13640   1.00000  Uiso   1.00
C011   C     0.08495   0.48644   0.13689   1.00000  Uiso   1.00
C012   C     0.16678   0.63299   0.13676   1.00000  Uiso   1.00
C013   C     0.35203   0.81840   0.13674   1.00000  Uiso   1.00
C014   C     0.20346   0.90276   0.13618   1.00000  Uiso   1.00
C015   C     0.08223   0.78167   0.13628   1.00000  Uiso   1.00
C016   C     0.64529   0.81844   0.13679   1.00000  Uiso   1.00
C017   C     0.83061   0.63298   0.13675   1.00000  Uiso   1.00
C018   C     0.91514   0.78164   0.13633   1.00000  Uiso   1.00
C019   C     0.49865   0.90004   0.13698   1.00000  Uiso   1.00
C020   C     0.91242   0.48641   0.13681   1.00000  Uiso   1.00
N001   N     0.66609   0.31905   0.13559   1.00000  Uiso   1.00
N002   N     0.33134   0.31928   0.13615   1.00000  Uiso   1.00
N003   N     0.33141   0.65365   0.13678   1.00000  Uiso   1.00
N004   N     0.66587   0.65366   0.13677   1.00000  Uiso   1.00
N005   N     0.50574   0.47026   0.23918   1.00000  Uiso   1.00
Fe001  Fe    0.49868   0.48727   0.14300   1.00000  Uiso   1.00
O001   O     0.48527   0.61869   0.27532   1.00000  Uiso   1.00
H001   H     0.41725   0.39329   0.25398   1.00000  Uiso   1.00
H002   H     0.50344   0.59252   0.32252   1.00000  Uiso   1.00
H003   H     0.61474   0.42329   0.25168   1.00000  Uiso   1.00
loop_
_geom_bond_atom_site_label_1
_geom_bond_atom_site_label_2
_geom_bond_distance
_geom_bond_site_symmetry_2
_ccdc_geom_bond_type
C001   C002    1.410   .     D
C001   C003    1.410   .     S
C001   C019    1.449   1_545 S
C002   C008    1.436   .     S
C002   N002    1.397   .     S
C003   C005    1.436   .     D
C003   N001    1.396   .     S
C004   C005    1.404   1_565 S
C004   C016    1.435   .     D
C004   C018    1.439   .     S
C005   C004    1.404   1_545 S
C005   C006    1.438   .     S
C006   C007    1.436   .     S
C006   C009    1.404   1_655 D
C007   C020    1.410   .     S
C007   N001    1.395   .     D
C008   C009    1.438   .     S
C008   C014    1.404   1_545 D
C009   C006    1.404   1_455 D
C009   C010    1.436   .     S
C010   C011    1.410   .     S
C010   N002    1.395   .     D
C011   C012    1.410   .     S
C011   C020    1.449   1_455 D
C012   C015    1.437   .     S
C012   N003    1.394   .     D
C013   C014    1.435   .     S
C013   C019    1.410   .     D
C013   N003    1.395   .     S
C014   C008    1.404   1_565 D
C014   C015    1.439   .     S
C015   C018    1.404   1_455 D
C016   C019    1.410   .     S
C016   N004    1.395   .     S
C017   C018    1.437   .     S
C017   C020    1.410   .     S
C017   N004    1.395   .     D
C018   C015    1.404   1_655 D
C019   C001    1.449   1_565 S
C020   C011    1.449   1_655 D
N001   Fe001   1.999   .     S
N002   Fe001   1.996   .     S
N003   Fe001   1.986   .     S
N004   Fe001   1.985   .     S
N005   Fe001   1.935   .     S
N005   O001    1.452   .     S
N005   H001    1.029   .     S
N005   H003    1.028   .     S
O001   H002    0.983   .     S
