data_e+1.0-opt
_audit_creation_date              2024-12-22
_audit_creation_method            'Materials Studio'
_symmetry_space_group_name_H-M    'P1'
_symmetry_Int_Tables_number       1
_symmetry_cell_setting            triclinic
loop_
_symmetry_equiv_pos_as_xyz
  x,y,z
_cell_length_a                    8.3998
_cell_length_b                    8.3998
_cell_length_c                    20.0499
_cell_angle_alpha                 90.0000
_cell_angle_beta                  90.0000
_cell_angle_gamma                 90.0000
loop_
_atom_site_label
_atom_site_type_symbol
_atom_site_fract_x
_atom_site_fract_y
_atom_site_fract_z
_atom_site_U_iso_or_equiv
_atom_site_adp_type
_atom_site_occupancy
C001   C     0.49870   0.07257   0.13680   1.00000  Uiso   1.00
C002   C     0.35209   0.15440   0.13654   1.00000  Uiso   1.00
C003   C     0.64536   0.15425   0.13626   1.00000  Uiso   1.00
C004   C     0.79401   0.90295   0.13639   1.00000  Uiso   1.00
C005   C     0.79422   0.06964   0.13611   1.00000  Uiso   1.00
C006   C     0.91540   0.19082   0.13606   1.00000  Uiso   1.00
C007   C     0.83100   0.33966   0.13628   1.00000  Uiso   1.00
C008   C     0.20324   0.06973   0.13619   1.00000  Uiso   1.00
C009   C     0.08208   0.19092   0.13612   1.00000  Uiso   1.00
C010   C     0.16642   0.33978   0.13651   1.00000  Uiso   1.00
C011   C     0.08490   0.48643   0.13698   1.00000  Uiso   1.00
C012   C     0.16674   0.63293   0.13678   1.00000  Uiso   1.00
C013   C     0.35203   0.81842   0.13671   1.00000  Uiso   1.00
C014   C     0.20332   0.90303   0.13628   1.00000  Uiso   1.00
C015   C     0.08194   0.78173   0.13642   1.00000  Uiso   1.00
C016   C     0.64528   0.81845   0.13684   1.00000  Uiso   1.00
C017   C     0.83063   0.63289   0.13685   1.00000  Uiso   1.00
C018   C     0.91541   0.78167   0.13649   1.00000  Uiso   1.00
C019   C     0.49865   0.90004   0.13701   1.00000  Uiso   1.00
C020   C     0.91249   0.48638   0.13693   1.00000  Uiso   1.00
N001   N     0.66646   0.31876   0.13591   1.00000  Uiso   1.00
N002   N     0.33101   0.31902   0.13650   1.00000  Uiso   1.00
N003   N     0.33099   0.65400   0.13687   1.00000  Uiso   1.00
N004   N     0.66625   0.65394   0.13698   1.00000  Uiso   1.00
N005   N     0.50533   0.47040   0.23755   1.00000  Uiso   1.00
Fe001  Fe    0.49860   0.48752   0.14252   1.00000  Uiso   1.00
O001   O     0.48397   0.61964   0.27667   1.00000  Uiso   1.00
H001   H     0.41673   0.39380   0.25254   1.00000  Uiso   1.00
H002   H     0.50563   0.58920   0.32302   1.00000  Uiso   1.00
H003   H     0.61477   0.42452   0.25022   1.00000  Uiso   1.00
loop_
_geom_bond_atom_site_label_1
_geom_bond_atom_site_label_2
_geom_bond_distance
_geom_bond_site_symmetry_2
_ccdc_geom_bond_type
C001   C002    1.410   .     D
C001   C003    1.410   .     S
C001   C019    1.449   1_545 S
C002   C008    1.438   .     S
C002   N002    1.394   .     S
C003   C005    1.438   .     D
C003   N001    1.393   .     S
C004   C005    1.400   1_565 S
C004   C016    1.437   .     D
C004   C018    1.441   .     S
C005   C004    1.400   1_545 S
C005   C006    1.440   .     S
C006   C007    1.437   .     S
C006   C009    1.400   1_655 D
C007   C020    1.410   .     S
C007   N001    1.393   .     D
C008   C009    1.439   .     S
C008   C014    1.400   1_545 D
C009   C006    1.400   1_455 D
C009   C010    1.437   .     S
C010   C011    1.409   .     S
C010   N002    1.393   .     D
C011   C012    1.410   .     S
C011   C020    1.448   1_455 D
C012   C015    1.439   .     S
C012   N003    1.391   .     D
C013   C014    1.437   .     S
C013   C019    1.410   .     D
C013   N003    1.392   .     S
C014   C008    1.400   1_565 D
C014   C015    1.441   .     S
C015   C018    1.399   1_455 D
C016   C019    1.410   .     S
C016   N004    1.393   .     S
C017   C018    1.438   .     S
C017   C020    1.410   .     S
C017   N004    1.392   .     D
C018   C015    1.399   1_655 D
C019   C001    1.449   1_565 S
C020   C011    1.448   1_655 D
N001   Fe001   2.004   .     S
N002   Fe001   2.000   .     S
N003   Fe001   1.988   .     S
N004   Fe001   1.987   .     S
N005   Fe001   1.912   .     S
N005   O001    1.490   .     S
N005   H001    1.029   .     S
N005   H003    1.029   .     S
O001   H002    0.981   .     S
