data_e+0.8-opt
_audit_creation_date              2024-12-22
_audit_creation_method            'Materials Studio'
_symmetry_space_group_name_H-M    'P1'
_symmetry_Int_Tables_number       1
_symmetry_cell_setting            triclinic
loop_
_symmetry_equiv_pos_as_xyz
  x,y,z
_cell_length_a                    8.4044
_cell_length_b                    8.4044
_cell_length_c                    20.0609
_cell_angle_alpha                 90.0000
_cell_angle_beta                  90.0000
_cell_angle_gamma                 90.0000
loop_
_atom_site_label
_atom_site_type_symbol
_atom_site_fract_x
_atom_site_fract_y
_atom_site_fract_z
_atom_site_U_iso_or_equiv
_atom_site_adp_type
_atom_site_occupancy
C001   C     0.50051   0.08428   0.13890   1.00000  Uiso   1.00
C002   C     0.35376   0.16580   0.13862   1.00000  Uiso   1.00
C003   C     0.64726   0.16580   0.13850   1.00000  Uiso   1.00
C004   C     0.79616   0.91409   0.13785   1.00000  Uiso   1.00
C005   C     0.79617   0.08069   0.13784   1.00000  Uiso   1.00
C006   C     0.91728   0.20161   0.13774   1.00000  Uiso   1.00
C007   C     0.83288   0.35059   0.13834   1.00000  Uiso   1.00
C008   C     0.20485   0.08068   0.13797   1.00000  Uiso   1.00
C009   C     0.08374   0.20161   0.13781   1.00000  Uiso   1.00
C010   C     0.16813   0.35059   0.13843   1.00000  Uiso   1.00
C011   C     0.08682   0.49747   0.13882   1.00000  Uiso   1.00
C012   C     0.16834   0.64412   0.13849   1.00000  Uiso   1.00
C013   C     0.35401   0.83013   0.13832   1.00000  Uiso   1.00
C014   C     0.20489   0.91408   0.13798   1.00000  Uiso   1.00
C015   C     0.08404   0.79258   0.13802   1.00000  Uiso   1.00
C016   C     0.64703   0.83014   0.13819   1.00000  Uiso   1.00
C017   C     0.83269   0.64413   0.13838   1.00000  Uiso   1.00
C018   C     0.91700   0.79259   0.13795   1.00000  Uiso   1.00
C019   C     0.50052   0.91201   0.13866   1.00000  Uiso   1.00
C020   C     0.91419   0.49748   0.13876   1.00000  Uiso   1.00
N001   N     0.66949   0.32901   0.13871   1.00000  Uiso   1.00
N002   N     0.33152   0.32902   0.13882   1.00000  Uiso   1.00
N003   N     0.33316   0.66626   0.13816   1.00000  Uiso   1.00
N004   N     0.66787   0.66629   0.13802   1.00000  Uiso   1.00
N005   N     0.50073   0.52026   0.23564   1.00000  Uiso   1.00
Fe001  Fe    0.50049   0.50199   0.15178   1.00000  Uiso   1.00
O001   O     0.50016   0.61526   0.28021   1.00000  Uiso   1.00
loop_
_geom_bond_atom_site_label_1
_geom_bond_atom_site_label_2
_geom_bond_distance
_geom_bond_site_symmetry_2
_ccdc_geom_bond_type
C001   C002    1.411   .     D
C001   C003    1.411   .     S
C001   C019    1.448   1_545 S
C002   C008    1.442   .     S
C002   N002    1.384   .     S
C003   C005    1.442   .     D
C003   N001    1.384   .     S
C004   C005    1.400   1_565 S
C004   C016    1.438   .     D
C004   C018    1.440   .     S
C005   C004    1.400   1_545 S
C005   C006    1.438   .     S
C006   C007    1.439   .     S
C006   C009    1.399   1_655 D
C007   C020    1.411   .     S
C007   N001    1.385   .     D
C008   C009    1.438   .     S
C008   C014    1.400   1_545 D
C009   C006    1.399   1_455 D
C009   C010    1.439   .     S
C010   C011    1.411   .     S
C010   N002    1.385   .     D
C011   C012    1.410   .     S
C011   C020    1.451   1_455 D
C012   C015    1.435   .     S
C012   N003    1.398   .     D
C013   C014    1.438   .     S
C013   C019    1.411   .     D
C013   N003    1.388   .     S
C014   C008    1.400   1_565 D
C014   C015    1.440   .     S
C015   C018    1.404   1_455 D
C016   C019    1.411   .     S
C016   N004    1.388   .     S
C017   C018    1.435   .     S
C017   C020    1.410   .     S
C017   N004    1.398   .     D
C018   C015    1.404   1_655 D
C019   C001    1.448   1_565 S
C020   C011    1.451   1_655 D
N001   Fe001   2.049   .     S
N002   Fe001   2.049   .     S
N003   Fe001   1.990   .     S
N004   Fe001   1.990   .     S
N005   Fe001   1.689   .     S
N005   O001    1.199   .     D
