data_e-1.0-opt
_audit_creation_date              2024-12-22
_audit_creation_method            'Materials Studio'
_symmetry_space_group_name_H-M    'P1'
_symmetry_Int_Tables_number       1
_symmetry_cell_setting            triclinic
loop_
_symmetry_equiv_pos_as_xyz
  x,y,z
_cell_length_a                    8.4044
_cell_length_b                    8.4044
_cell_length_c                    20.0609
_cell_angle_alpha                 90.0000
_cell_angle_beta                  90.0000
_cell_angle_gamma                 90.0000
loop_
_atom_site_label
_atom_site_type_symbol
_atom_site_fract_x
_atom_site_fract_y
_atom_site_fract_z
_atom_site_U_iso_or_equiv
_atom_site_adp_type
_atom_site_occupancy
C001   C     0.50051   0.08716   0.13860   1.00000  Uiso   1.00
C002   C     0.35380   0.16871   0.13844   1.00000  Uiso   1.00
C003   C     0.64721   0.16871   0.13844   1.00000  Uiso   1.00
C004   C     0.79615   0.91680   0.13695   1.00000  Uiso   1.00
C005   C     0.79616   0.08472   0.13740   1.00000  Uiso   1.00
C006   C     0.91655   0.20504   0.13756   1.00000  Uiso   1.00
C007   C     0.83262   0.35396   0.13843   1.00000  Uiso   1.00
C008   C     0.20486   0.08472   0.13740   1.00000  Uiso   1.00
C009   C     0.08446   0.20504   0.13756   1.00000  Uiso   1.00
C010   C     0.16840   0.35396   0.13843   1.00000  Uiso   1.00
C011   C     0.08686   0.50067   0.13834   1.00000  Uiso   1.00
C012   C     0.16829   0.64742   0.13745   1.00000  Uiso   1.00
C013   C     0.35374   0.83303   0.13737   1.00000  Uiso   1.00
C014   C     0.20486   0.91680   0.13695   1.00000  Uiso   1.00
C015   C     0.08447   0.79633   0.13683   1.00000  Uiso   1.00
C016   C     0.64727   0.83303   0.13737   1.00000  Uiso   1.00
C017   C     0.83272   0.64742   0.13745   1.00000  Uiso   1.00
C018   C     0.91655   0.79633   0.13683   1.00000  Uiso   1.00
C019   C     0.50051   0.91448   0.13796   1.00000  Uiso   1.00
C020   C     0.91416   0.50067   0.13834   1.00000  Uiso   1.00
N001   N     0.66818   0.33311   0.13801   1.00000  Uiso   1.00
N002   N     0.33283   0.33311   0.13801   1.00000  Uiso   1.00
N003   N     0.33281   0.66848   0.13636   1.00000  Uiso   1.00
N004   N     0.66820   0.66848   0.13636   1.00000  Uiso   1.00
N005   N     0.50050   0.51658   0.23624   1.00000  Uiso   1.00
Fe001  Fe    0.50050   0.50235   0.15449   1.00000  Uiso   1.00
O001   O     0.50050   0.54149   0.29333   1.00000  Uiso   1.00
loop_
_geom_bond_atom_site_label_1
_geom_bond_atom_site_label_2
_geom_bond_distance
_geom_bond_site_symmetry_2
_ccdc_geom_bond_type
C001   C002    1.411   .     D
C001   C003    1.411   .     S
C001   C019    1.451   1_545 S
C002   C008    1.437   .     S
C002   N002    1.393   .     S
C003   C005    1.437   .     D
C003   N001    1.393   .     S
C004   C005    1.411   1_565 S
C004   C016    1.436   .     D
C004   C018    1.431   .     S
C005   C004    1.411   1_545 S
C005   C006    1.431   .     S
C006   C007    1.437   .     S
C006   C009    1.411   1_655 D
C007   C020    1.411   .     S
C007   N001    1.393   .     D
C008   C009    1.431   .     S
C008   C014    1.411   1_545 D
C009   C006    1.411   1_455 D
C009   C010    1.437   .     S
C010   C011    1.411   .     S
C010   N002    1.393   .     D
C011   C012    1.411   .     S
C011   C020    1.451   1_455 D
C012   C015    1.436   .     S
C012   N003    1.394   .     D
C013   C014    1.436   .     S
C013   C019    1.411   .     D
C013   N003    1.394   .     S
C014   C008    1.411   1_565 D
C014   C015    1.431   .     S
C015   C018    1.411   1_455 D
C016   C019    1.411   .     S
C016   N004    1.394   .     S
C017   C018    1.436   .     S
C017   C020    1.411   .     S
C017   N004    1.394   .     D
C018   C015    1.411   1_655 D
C019   C001    1.451   1_565 S
C020   C011    1.451   1_655 D
N001   Fe001   2.029   .     S
N002   Fe001   2.029   .     S
N003   Fe001   2.017   .     S
N004   Fe001   2.017   .     S
N005   Fe001   1.644   .     S
N005   O001    1.164   .     D
