data_e-0.2-opt
_audit_creation_date              2024-12-22
_audit_creation_method            'Materials Studio'
_symmetry_space_group_name_H-M    'P1'
_symmetry_Int_Tables_number       1
_symmetry_cell_setting            triclinic
loop_
_symmetry_equiv_pos_as_xyz
  x,y,z
_cell_length_a                    8.4044
_cell_length_b                    8.4044
_cell_length_c                    20.0609
_cell_angle_alpha                 90.0000
_cell_angle_beta                  90.0000
_cell_angle_gamma                 90.0000
loop_
_atom_site_label
_atom_site_type_symbol
_atom_site_fract_x
_atom_site_fract_y
_atom_site_fract_z
_atom_site_U_iso_or_equiv
_atom_site_adp_type
_atom_site_occupancy
C001   C     0.50051   0.08527   0.13866   1.00000  Uiso   1.00
C002   C     0.35375   0.16691   0.13845   1.00000  Uiso   1.00
C003   C     0.64728   0.16691   0.13845   1.00000  Uiso   1.00
C004   C     0.79616   0.91473   0.13742   1.00000  Uiso   1.00
C005   C     0.79623   0.08251   0.13769   1.00000  Uiso   1.00
C006   C     0.91666   0.20275   0.13775   1.00000  Uiso   1.00
C007   C     0.83267   0.35167   0.13838   1.00000  Uiso   1.00
C008   C     0.20480   0.08251   0.13770   1.00000  Uiso   1.00
C009   C     0.08437   0.20275   0.13776   1.00000  Uiso   1.00
C010   C     0.16835   0.35168   0.13838   1.00000  Uiso   1.00
C011   C     0.08685   0.49849   0.13851   1.00000  Uiso   1.00
C012   C     0.16837   0.64524   0.13782   1.00000  Uiso   1.00
C013   C     0.35374   0.83118   0.13761   1.00000  Uiso   1.00
C014   C     0.20487   0.91473   0.13742   1.00000  Uiso   1.00
C015   C     0.08446   0.79404   0.13741   1.00000  Uiso   1.00
C016   C     0.64729   0.83118   0.13760   1.00000  Uiso   1.00
C017   C     0.83266   0.64524   0.13781   1.00000  Uiso   1.00
C018   C     0.91657   0.79404   0.13740   1.00000  Uiso   1.00
C019   C     0.50052   0.91279   0.13812   1.00000  Uiso   1.00
C020   C     0.91418   0.49849   0.13851   1.00000  Uiso   1.00
N001   N     0.66861   0.33079   0.13809   1.00000  Uiso   1.00
N002   N     0.33241   0.33079   0.13809   1.00000  Uiso   1.00
N003   N     0.33305   0.66661   0.13676   1.00000  Uiso   1.00
N004   N     0.66798   0.66662   0.13675   1.00000  Uiso   1.00
N005   N     0.50048   0.52307   0.23586   1.00000  Uiso   1.00
Fe001  Fe    0.50051   0.50222   0.15396   1.00000  Uiso   1.00
O001   O     0.50036   0.58537   0.28855   1.00000  Uiso   1.00
loop_
_geom_bond_atom_site_label_1
_geom_bond_atom_site_label_2
_geom_bond_distance
_geom_bond_site_symmetry_2
_ccdc_geom_bond_type
C001   C002    1.411   .     D
C001   C003    1.411   .     S
C001   C019    1.450   1_545 S
C002   C008    1.439   .     S
C002   N002    1.389   .     S
C003   C005    1.439   .     D
C003   N001    1.389   .     S
C004   C005    1.410   1_565 S
C004   C016    1.435   .     D
C004   C018    1.433   .     S
C005   C004    1.410   1_545 S
C005   C006    1.430   .     S
C006   C007    1.437   .     S
C006   C009    1.409   1_655 D
C007   C020    1.411   .     S
C007   N001    1.390   .     D
C008   C009    1.430   .     S
C008   C014    1.410   1_545 D
C009   C006    1.409   1_455 D
C009   C010    1.437   .     S
C010   C011    1.411   .     S
C010   N002    1.390   .     D
C011   C012    1.411   .     S
C011   C020    1.451   1_455 D
C012   C015    1.436   .     S
C012   N003    1.396   .     D
C013   C014    1.435   .     S
C013   C019    1.411   .     D
C013   N003    1.394   .     S
C014   C008    1.410   1_565 D
C014   C015    1.433   .     S
C015   C018    1.411   1_455 D
C016   C019    1.411   .     S
C016   N004    1.394   .     S
C017   C018    1.436   .     S
C017   C020    1.411   .     S
C017   N004    1.396   .     D
C018   C015    1.411   1_655 D
C019   C001    1.450   1_565 S
C020   C011    1.451   1_655 D
N001   Fe001   2.043   .     S
N002   Fe001   2.043   .     S
N003   Fe001   2.002   .     S
N004   Fe001   2.002   .     S
N005   Fe001   1.652   .     S
N005   O001    1.180   .     D
