data_e+0.4-opt
_audit_creation_date              2024-12-22
_audit_creation_method            'Materials Studio'
_symmetry_space_group_name_H-M    'P1'
_symmetry_Int_Tables_number       1
_symmetry_cell_setting            triclinic
loop_
_symmetry_equiv_pos_as_xyz
  x,y,z
_cell_length_a                    8.4044
_cell_length_b                    8.4044
_cell_length_c                    20.0609
_cell_angle_alpha                 90.0000
_cell_angle_beta                  90.0000
_cell_angle_gamma                 90.0000
loop_
_atom_site_label
_atom_site_type_symbol
_atom_site_fract_x
_atom_site_fract_y
_atom_site_fract_z
_atom_site_U_iso_or_equiv
_atom_site_adp_type
_atom_site_occupancy
C001   C     0.50051   0.08428   0.13889   1.00000  Uiso   1.00
C002   C     0.35374   0.16583   0.13862   1.00000  Uiso   1.00
C003   C     0.64728   0.16583   0.13851   1.00000  Uiso   1.00
C004   C     0.79611   0.91392   0.13786   1.00000  Uiso   1.00
C005   C     0.79617   0.08087   0.13786   1.00000  Uiso   1.00
C006   C     0.91711   0.20160   0.13776   1.00000  Uiso   1.00
C007   C     0.83280   0.35055   0.13833   1.00000  Uiso   1.00
C008   C     0.20486   0.08087   0.13798   1.00000  Uiso   1.00
C009   C     0.08390   0.20159   0.13782   1.00000  Uiso   1.00
C010   C     0.16820   0.35055   0.13842   1.00000  Uiso   1.00
C011   C     0.08684   0.49743   0.13881   1.00000  Uiso   1.00
C012   C     0.16839   0.64409   0.13846   1.00000  Uiso   1.00
C013   C     0.35392   0.83011   0.13828   1.00000  Uiso   1.00
C014   C     0.20494   0.91391   0.13798   1.00000  Uiso   1.00
C015   C     0.08416   0.79262   0.13801   1.00000  Uiso   1.00
C016   C     0.64711   0.83012   0.13816   1.00000  Uiso   1.00
C017   C     0.83263   0.64411   0.13836   1.00000  Uiso   1.00
C018   C     0.91688   0.79263   0.13795   1.00000  Uiso   1.00
C019   C     0.50052   0.91194   0.13863   1.00000  Uiso   1.00
C020   C     0.91417   0.49743   0.13876   1.00000  Uiso   1.00
N001   N     0.66933   0.32917   0.13857   1.00000  Uiso   1.00
N002   N     0.33168   0.32918   0.13868   1.00000  Uiso   1.00
N003   N     0.33320   0.66605   0.13798   1.00000  Uiso   1.00
N004   N     0.66784   0.66609   0.13785   1.00000  Uiso   1.00
N005   N     0.50072   0.52126   0.23567   1.00000  Uiso   1.00
Fe001  Fe    0.50049   0.50188   0.15202   1.00000  Uiso   1.00
O001   O     0.50016   0.61465   0.28068   1.00000  Uiso   1.00
loop_
_geom_bond_atom_site_label_1
_geom_bond_atom_site_label_2
_geom_bond_distance
_geom_bond_site_symmetry_2
_ccdc_geom_bond_type
C001   C002    1.411   .     D
C001   C003    1.411   .     S
C001   C019    1.448   1_545 S
C002   C008    1.441   .     S
C002   N002    1.385   .     S
C003   C005    1.441   .     D
C003   N001    1.385   .     S
C004   C005    1.403   1_565 S
C004   C016    1.437   .     D
C004   C018    1.439   .     S
C005   C004    1.403   1_545 S
C005   C006    1.436   .     S
C006   C007    1.439   .     S
C006   C009    1.402   1_655 D
C007   C020    1.411   .     S
C007   N001    1.386   .     D
C008   C009    1.436   .     S
C008   C014    1.403   1_545 D
C009   C006    1.402   1_455 D
C009   C010    1.439   .     S
C010   C011    1.411   .     S
C010   N002    1.386   .     D
C011   C012    1.410   .     S
C011   C020    1.451   1_455 D
C012   C015    1.435   .     S
C012   N003    1.397   .     D
C013   C014    1.437   .     S
C013   C019    1.411   .     D
C013   N003    1.390   .     S
C014   C008    1.403   1_565 D
C014   C015    1.439   .     S
C015   C018    1.406   1_455 D
C016   C019    1.411   .     S
C016   N004    1.390   .     S
C017   C018    1.435   .     S
C017   C020    1.410   .     S
C017   N004    1.397   .     D
C018   C015    1.406   1_655 D
C019   C001    1.448   1_565 S
C020   C011    1.451   1_655 D
N001   Fe001   2.048   .     S
N002   Fe001   2.047   .     S
N003   Fe001   1.990   .     S
N004   Fe001   1.991   .     S
N005   Fe001   1.686   .     S
N005   O001    1.196   .     D
