data_e-0.8-opt
_audit_creation_date              2024-12-22
_audit_creation_method            'Materials Studio'
_symmetry_space_group_name_H-M    'P1'
_symmetry_Int_Tables_number       1
_symmetry_cell_setting            triclinic
loop_
_symmetry_equiv_pos_as_xyz
  x,y,z
_cell_length_a                    8.4044
_cell_length_b                    8.4044
_cell_length_c                    20.0609
_cell_angle_alpha                 90.0000
_cell_angle_beta                  90.0000
_cell_angle_gamma                 90.0000
loop_
_atom_site_label
_atom_site_type_symbol
_atom_site_fract_x
_atom_site_fract_y
_atom_site_fract_z
_atom_site_U_iso_or_equiv
_atom_site_adp_type
_atom_site_occupancy
C001   C     0.50050   0.08696   0.13859   1.00000  Uiso   1.00
C002   C     0.35380   0.16852   0.13841   1.00000  Uiso   1.00
C003   C     0.64723   0.16853   0.13841   1.00000  Uiso   1.00
C004   C     0.79616   0.91650   0.13706   1.00000  Uiso   1.00
C005   C     0.79618   0.08456   0.13749   1.00000  Uiso   1.00
C006   C     0.91648   0.20477   0.13763   1.00000  Uiso   1.00
C007   C     0.83259   0.35368   0.13840   1.00000  Uiso   1.00
C008   C     0.20484   0.08456   0.13749   1.00000  Uiso   1.00
C009   C     0.08453   0.20477   0.13763   1.00000  Uiso   1.00
C010   C     0.16841   0.35368   0.13840   1.00000  Uiso   1.00
C011   C     0.08685   0.50040   0.13835   1.00000  Uiso   1.00
C012   C     0.16831   0.64718   0.13749   1.00000  Uiso   1.00
C013   C     0.35372   0.83280   0.13738   1.00000  Uiso   1.00
C014   C     0.20485   0.91650   0.13706   1.00000  Uiso   1.00
C015   C     0.08455   0.79609   0.13697   1.00000  Uiso   1.00
C016   C     0.64729   0.83281   0.13738   1.00000  Uiso   1.00
C017   C     0.83271   0.64717   0.13749   1.00000  Uiso   1.00
C018   C     0.91647   0.79609   0.13697   1.00000  Uiso   1.00
C019   C     0.50051   0.91430   0.13797   1.00000  Uiso   1.00
C020   C     0.91417   0.50041   0.13835   1.00000  Uiso   1.00
N001   N     0.66817   0.33292   0.13790   1.00000  Uiso   1.00
N002   N     0.33285   0.33292   0.13790   1.00000  Uiso   1.00
N003   N     0.33291   0.66818   0.13630   1.00000  Uiso   1.00
N004   N     0.66811   0.66819   0.13630   1.00000  Uiso   1.00
N005   N     0.50051   0.51728   0.23611   1.00000  Uiso   1.00
Fe001  Fe    0.50050   0.50228   0.15450   1.00000  Uiso   1.00
O001   O     0.50050   0.54654   0.29300   1.00000  Uiso   1.00
loop_
_geom_bond_atom_site_label_1
_geom_bond_atom_site_label_2
_geom_bond_distance
_geom_bond_site_symmetry_2
_ccdc_geom_bond_type
C001   C002    1.411   .     D
C001   C003    1.411   .     S
C001   C019    1.451   1_545 S
C002   C008    1.437   .     S
C002   N002    1.393   .     S
C003   C005    1.437   .     D
C003   N001    1.393   .     S
C004   C005    1.412   1_565 S
C004   C016    1.435   .     D
C004   C018    1.431   .     S
C005   C004    1.412   1_545 S
C005   C006    1.429   .     S
C006   C007    1.436   .     S
C006   C009    1.412   1_655 D
C007   C020    1.411   .     S
C007   N001    1.393   .     D
C008   C009    1.429   .     S
C008   C014    1.413   1_545 D
C009   C006    1.412   1_455 D
C009   C010    1.436   .     S
C010   C011    1.411   .     S
C010   N002    1.393   .     D
C011   C012    1.411   .     S
C011   C020    1.451   1_455 D
C012   C015    1.436   .     S
C012   N003    1.395   .     D
C013   C014    1.435   .     S
C013   C019    1.411   .     D
C013   N003    1.395   .     S
C014   C008    1.413   1_565 D
C014   C015    1.430   .     S
C015   C018    1.413   1_455 D
C016   C019    1.411   .     S
C016   N004    1.395   .     S
C017   C018    1.436   .     S
C017   C020    1.411   .     S
C017   N004    1.395   .     D
C018   C015    1.413   1_655 D
C019   C001    1.451   1_565 S
C020   C011    1.451   1_655 D
N001   Fe001   2.030   .     S
N002   Fe001   2.030   .     S
N003   Fe001   2.015   .     S
N004   Fe001   2.015   .     S
N005   Fe001   1.642   .     S
N005   O001    1.167   .     D
