data_e+0.2-opt
_audit_creation_date              2024-12-22
_audit_creation_method            'Materials Studio'
_symmetry_space_group_name_H-M    'P1'
_symmetry_Int_Tables_number       1
_symmetry_cell_setting            triclinic
loop_
_symmetry_equiv_pos_as_xyz
  x,y,z
_cell_length_a                    8.4044
_cell_length_b                    8.4044
_cell_length_c                    20.0609
_cell_angle_alpha                 90.0000
_cell_angle_beta                  90.0000
_cell_angle_gamma                 90.0000
loop_
_atom_site_label
_atom_site_type_symbol
_atom_site_fract_x
_atom_site_fract_y
_atom_site_fract_z
_atom_site_U_iso_or_equiv
_atom_site_adp_type
_atom_site_occupancy
C001   C     0.50052   0.08427   0.13888   1.00000  Uiso   1.00
C002   C     0.35373   0.16583   0.13862   1.00000  Uiso   1.00
C003   C     0.64730   0.16583   0.13854   1.00000  Uiso   1.00
C004   C     0.79615   0.91389   0.13782   1.00000  Uiso   1.00
C005   C     0.79620   0.08098   0.13786   1.00000  Uiso   1.00
C006   C     0.91703   0.20158   0.13777   1.00000  Uiso   1.00
C007   C     0.83280   0.35054   0.13835   1.00000  Uiso   1.00
C008   C     0.20483   0.08097   0.13795   1.00000  Uiso   1.00
C009   C     0.08399   0.20157   0.13781   1.00000  Uiso   1.00
C010   C     0.16822   0.35053   0.13842   1.00000  Uiso   1.00
C011   C     0.08686   0.49739   0.13876   1.00000  Uiso   1.00
C012   C     0.16836   0.64411   0.13835   1.00000  Uiso   1.00
C013   C     0.35387   0.83016   0.13814   1.00000  Uiso   1.00
C014   C     0.20490   0.91388   0.13791   1.00000  Uiso   1.00
C015   C     0.08421   0.79269   0.13795   1.00000  Uiso   1.00
C016   C     0.64717   0.83016   0.13805   1.00000  Uiso   1.00
C017   C     0.83266   0.64412   0.13827   1.00000  Uiso   1.00
C018   C     0.91683   0.79270   0.13790   1.00000  Uiso   1.00
C019   C     0.50052   0.91192   0.13853   1.00000  Uiso   1.00
C020   C     0.91416   0.49740   0.13873   1.00000  Uiso   1.00
N001   N     0.66921   0.32925   0.13851   1.00000  Uiso   1.00
N002   N     0.33182   0.32926   0.13859   1.00000  Uiso   1.00
N003   N     0.33316   0.66599   0.13769   1.00000  Uiso   1.00
N004   N     0.66788   0.66601   0.13759   1.00000  Uiso   1.00
N005   N     0.50064   0.52312   0.23568   1.00000  Uiso   1.00
Fe001  Fe    0.50050   0.50192   0.15245   1.00000  Uiso   1.00
O001   O     0.50018   0.61251   0.28178   1.00000  Uiso   1.00
loop_
_geom_bond_atom_site_label_1
_geom_bond_atom_site_label_2
_geom_bond_distance
_geom_bond_site_symmetry_2
_ccdc_geom_bond_type
C001   C002    1.411   .     D
C001   C003    1.411   .     S
C001   C019    1.449   1_545 S
C002   C008    1.440   .     S
C002   N002    1.386   .     S
C003   C005    1.440   .     D
C003   N001    1.386   .     S
C004   C005    1.404   1_565 S
C004   C016    1.436   .     D
C004   C018    1.437   .     S
C005   C004    1.404   1_545 S
C005   C006    1.435   .     S
C006   C007    1.438   .     S
C006   C009    1.403   1_655 D
C007   C020    1.411   .     S
C007   N001    1.386   .     D
C008   C009    1.435   .     S
C008   C014    1.404   1_545 D
C009   C006    1.403   1_455 D
C009   C010    1.438   .     S
C010   C011    1.411   .     S
C010   N002    1.387   .     D
C011   C012    1.411   .     S
C011   C020    1.451   1_455 D
C012   C015    1.435   .     S
C012   N003    1.397   .     D
C013   C014    1.436   .     S
C013   C019    1.411   .     D
C013   N003    1.391   .     S
C014   C008    1.404   1_565 D
C014   C015    1.437   .     S
C015   C018    1.407   1_455 D
C016   C019    1.411   .     S
C016   N004    1.391   .     S
C017   C018    1.435   .     S
C017   C020    1.411   .     S
C017   N004    1.397   .     D
C018   C015    1.407   1_655 D
C019   C001    1.449   1_565 S
C020   C011    1.451   1_655 D
N001   Fe001   2.048   .     S
N002   Fe001   2.048   .     S
N003   Fe001   1.992   .     S
N004   Fe001   1.992   .     S
N005   Fe001   1.679   .     S
N005   O001    1.192   .     D
