data_e+0.6-opt
_audit_creation_date              2024-12-22
_audit_creation_method            'Materials Studio'
_symmetry_space_group_name_H-M    'P1'
_symmetry_Int_Tables_number       1
_symmetry_cell_setting            triclinic
loop_
_symmetry_equiv_pos_as_xyz
  x,y,z
_cell_length_a                    8.4044
_cell_length_b                    8.4044
_cell_length_c                    20.0609
_cell_angle_alpha                 90.0000
_cell_angle_beta                  90.0000
_cell_angle_gamma                 90.0000
loop_
_atom_site_label
_atom_site_type_symbol
_atom_site_fract_x
_atom_site_fract_y
_atom_site_fract_z
_atom_site_U_iso_or_equiv
_atom_site_adp_type
_atom_site_occupancy
C001   C     0.50051   0.08431   0.13888   1.00000  Uiso   1.00
C002   C     0.35375   0.16586   0.13860   1.00000  Uiso   1.00
C003   C     0.64727   0.16586   0.13848   1.00000  Uiso   1.00
C004   C     0.79611   0.91398   0.13784   1.00000  Uiso   1.00
C005   C     0.79615   0.08081   0.13783   1.00000  Uiso   1.00
C006   C     0.91717   0.20164   0.13774   1.00000  Uiso   1.00
C007   C     0.83282   0.35061   0.13832   1.00000  Uiso   1.00
C008   C     0.20488   0.08081   0.13797   1.00000  Uiso   1.00
C009   C     0.08385   0.20163   0.13781   1.00000  Uiso   1.00
C010   C     0.16819   0.35061   0.13842   1.00000  Uiso   1.00
C011   C     0.08683   0.49747   0.13880   1.00000  Uiso   1.00
C012   C     0.16842   0.64410   0.13847   1.00000  Uiso   1.00
C013   C     0.35400   0.83010   0.13831   1.00000  Uiso   1.00
C014   C     0.20493   0.91397   0.13797   1.00000  Uiso   1.00
C015   C     0.08413   0.79259   0.13800   1.00000  Uiso   1.00
C016   C     0.64704   0.83010   0.13818   1.00000  Uiso   1.00
C017   C     0.83260   0.64411   0.13837   1.00000  Uiso   1.00
C018   C     0.91691   0.79260   0.13793   1.00000  Uiso   1.00
C019   C     0.50052   0.91196   0.13864   1.00000  Uiso   1.00
C020   C     0.91418   0.49748   0.13875   1.00000  Uiso   1.00
N001   N     0.66939   0.32918   0.13866   1.00000  Uiso   1.00
N002   N     0.33162   0.32919   0.13877   1.00000  Uiso   1.00
N003   N     0.33324   0.66612   0.13816   1.00000  Uiso   1.00
N004   N     0.66780   0.66616   0.13801   1.00000  Uiso   1.00
N005   N     0.50075   0.51969   0.23586   1.00000  Uiso   1.00
Fe001  Fe    0.50049   0.50199   0.15191   1.00000  Uiso   1.00
O001   O     0.50014   0.61564   0.28024   1.00000  Uiso   1.00
loop_
_geom_bond_atom_site_label_1
_geom_bond_atom_site_label_2
_geom_bond_distance
_geom_bond_site_symmetry_2
_ccdc_geom_bond_type
C001   C002    1.411   .     D
C001   C003    1.411   .     S
C001   C019    1.449   1_545 S
C002   C008    1.441   .     S
C002   N002    1.385   .     S
C003   C005    1.441   .     D
C003   N001    1.385   .     S
C004   C005    1.402   1_565 S
C004   C016    1.438   .     D
C004   C018    1.439   .     S
C005   C004    1.402   1_545 S
C005   C006    1.437   .     S
C006   C007    1.439   .     S
C006   C009    1.401   1_655 D
C007   C020    1.411   .     S
C007   N001    1.385   .     D
C008   C009    1.437   .     S
C008   C014    1.402   1_545 D
C009   C006    1.401   1_455 D
C009   C010    1.439   .     S
C010   C011    1.411   .     S
C010   N002    1.385   .     D
C011   C012    1.410   .     S
C011   C020    1.451   1_455 D
C012   C015    1.435   .     S
C012   N003    1.398   .     D
C013   C014    1.438   .     S
C013   C019    1.411   .     D
C013   N003    1.389   .     S
C014   C008    1.402   1_565 D
C014   C015    1.439   .     S
C015   C018    1.405   1_455 D
C016   C019    1.411   .     S
C016   N004    1.389   .     S
C017   C018    1.435   .     S
C017   C020    1.410   .     S
C017   N004    1.397   .     D
C018   C015    1.405   1_655 D
C019   C001    1.449   1_565 S
C020   C011    1.451   1_655 D
N001   Fe001   2.048   .     S
N002   Fe001   2.048   .     S
N003   Fe001   1.989   .     S
N004   Fe001   1.990   .     S
N005   Fe001   1.691   .     S
N005   O001    1.201   .     D
