data_e+1.0-opt
_audit_creation_date              2024-12-22
_audit_creation_method            'Materials Studio'
_symmetry_space_group_name_H-M    'P1'
_symmetry_Int_Tables_number       1
_symmetry_cell_setting            triclinic
loop_
_symmetry_equiv_pos_as_xyz
  x,y,z
_cell_length_a                    8.3994
_cell_length_b                    8.3994
_cell_length_c                    20.0487
_cell_angle_alpha                 90.0000
_cell_angle_beta                  90.0000
_cell_angle_gamma                 90.0000
loop_
_atom_site_label
_atom_site_type_symbol
_atom_site_fract_x
_atom_site_fract_y
_atom_site_fract_z
_atom_site_U_iso_or_equiv
_atom_site_adp_type
_atom_site_occupancy
C001   C     0.50227   0.08496   0.14103   1.00000  Uiso   1.00
C002   C     0.35590   0.16703   0.14098   1.00000  Uiso   1.00
C003   C     0.64876   0.16679   0.14001   1.00000  Uiso   1.00
C004   C     0.79789   0.91559   0.13795   1.00000  Uiso   1.00
C005   C     0.79785   0.08181   0.13827   1.00000  Uiso   1.00
C006   C     0.91892   0.20322   0.13807   1.00000  Uiso   1.00
C007   C     0.83366   0.35221   0.13923   1.00000  Uiso   1.00
C008   C     0.20685   0.08179   0.13888   1.00000  Uiso   1.00
C009   C     0.08528   0.20351   0.13838   1.00000  Uiso   1.00
C010   C     0.16982   0.35230   0.14001   1.00000  Uiso   1.00
C011   C     0.08797   0.49870   0.13954   1.00000  Uiso   1.00
C012   C     0.16981   0.64518   0.13926   1.00000  Uiso   1.00
C013   C     0.35583   0.83037   0.14034   1.00000  Uiso   1.00
C014   C     0.20678   0.91566   0.13862   1.00000  Uiso   1.00
C015   C     0.08526   0.79395   0.13786   1.00000  Uiso   1.00
C016   C     0.64877   0.83056   0.13918   1.00000  Uiso   1.00
C017   C     0.83366   0.64515   0.13842   1.00000  Uiso   1.00
C018   C     0.91894   0.79419   0.13755   1.00000  Uiso   1.00
C019   C     0.50227   0.91235   0.14062   1.00000  Uiso   1.00
C020   C     0.91561   0.49867   0.13917   1.00000  Uiso   1.00
N001   N     0.66963   0.33087   0.14047   1.00000  Uiso   1.00
N002   N     0.33456   0.33138   0.14216   1.00000  Uiso   1.00
N003   N     0.33441   0.66615   0.14111   1.00000  Uiso   1.00
N004   N     0.66980   0.66660   0.13900   1.00000  Uiso   1.00
N005   N     0.41749   0.53154   0.29021   1.00000  Uiso   1.00
Fe001  Fe    0.50008   0.49894   0.14946   1.00000  Uiso   1.00
O001   O     0.53315   0.50772   0.24278   1.00000  Uiso   1.00
O002   O     0.47302   0.56024   0.34667   1.00000  Uiso   1.00
O003   O     0.27474   0.52215   0.27542   1.00000  Uiso   1.00
loop_
_geom_bond_atom_site_label_1
_geom_bond_atom_site_label_2
_geom_bond_distance
_geom_bond_site_symmetry_2
_ccdc_geom_bond_type
C001   C002    1.409   .     D
C001   C003    1.410   .     S
C001   C019    1.450   1_545 S
C002   C008    1.443   .     S
C002   N002    1.392   .     S
C003   C005    1.442   .     D
C003   N001    1.389   .     S
C004   C005    1.396   1_565 S
C004   C016    1.442   .     D
C004   C018    1.440   .     S
C005   C004    1.396   1_545 S
C005   C006    1.440   .     S
C006   C007    1.442   .     S
C006   C009    1.397   1_655 D
C007   C020    1.410   .     S
C007   N001    1.390   .     D
C008   C009    1.445   .     S
C008   C014    1.395   1_545 D
C009   C006    1.397   1_455 D
C009   C010    1.438   .     S
C010   C011    1.409   .     S
C010   N002    1.396   .     D
C011   C012    1.409   .     S
C011   C020    1.448   1_455 D
C012   C015    1.438   .     S
C012   N003    1.394   .     D
C013   C014    1.443   .     S
C013   C019    1.410   .     D
C013   N003    1.391   .     S
C014   C008    1.395   1_565 D
C014   C015    1.445   .     S
C015   C018    1.397   1_455 D
C016   C019    1.410   .     S
C016   N004    1.388   .     S
C017   C018    1.442   .     S
C017   C020    1.410   .     S
C017   N004    1.388   .     D
C018   C015    1.397   1_655 D
C019   C001    1.450   1_565 S
C020   C011    1.448   1_655 D
N001   Fe001   2.013   .     S
N002   Fe001   1.984   .     S
N003   Fe001   1.984   .     S
N004   Fe001   2.015   .     S
N005   O001    1.374   .     S
N005   O002    1.248   .     S
N005   O003    1.238   .     D
Fe001  O001    1.893   .     S
