data_e-0.8-opt
_audit_creation_date              2024-12-22
_audit_creation_method            'Materials Studio'
_symmetry_space_group_name_H-M    'P1'
_symmetry_Int_Tables_number       1
_symmetry_cell_setting            triclinic
loop_
_symmetry_equiv_pos_as_xyz
  x,y,z
_cell_length_a                    8.3994
_cell_length_b                    8.3994
_cell_length_c                    20.0487
_cell_angle_alpha                 90.0000
_cell_angle_beta                  90.0000
_cell_angle_gamma                 90.0000
loop_
_atom_site_label
_atom_site_type_symbol
_atom_site_fract_x
_atom_site_fract_y
_atom_site_fract_z
_atom_site_U_iso_or_equiv
_atom_site_adp_type
_atom_site_occupancy
C001   C     0.50286   0.08494   0.14076   1.00000  Uiso   1.00
C002   C     0.35662   0.16704   0.14091   1.00000  Uiso   1.00
C003   C     0.64948   0.16663   0.13953   1.00000  Uiso   1.00
C004   C     0.79840   0.91515   0.13781   1.00000  Uiso   1.00
C005   C     0.79848   0.08204   0.13812   1.00000  Uiso   1.00
C006   C     0.91917   0.20324   0.13803   1.00000  Uiso   1.00
C007   C     0.83420   0.35205   0.13881   1.00000  Uiso   1.00
C008   C     0.20770   0.08222   0.13887   1.00000  Uiso   1.00
C009   C     0.08631   0.20375   0.13842   1.00000  Uiso   1.00
C010   C     0.17023   0.35238   0.14011   1.00000  Uiso   1.00
C011   C     0.08834   0.49877   0.13969   1.00000  Uiso   1.00
C012   C     0.17014   0.64527   0.13975   1.00000  Uiso   1.00
C013   C     0.35643   0.83029   0.14072   1.00000  Uiso   1.00
C014   C     0.20750   0.91532   0.13878   1.00000  Uiso   1.00
C015   C     0.08617   0.79388   0.13813   1.00000  Uiso   1.00
C016   C     0.64931   0.83048   0.13877   1.00000  Uiso   1.00
C017   C     0.83415   0.64519   0.13801   1.00000  Uiso   1.00
C018   C     0.91904   0.79407   0.13755   1.00000  Uiso   1.00
C019   C     0.50278   0.91224   0.14048   1.00000  Uiso   1.00
C020   C     0.91597   0.49865   0.13887   1.00000  Uiso   1.00
N001   N     0.67003   0.33071   0.13943   1.00000  Uiso   1.00
N002   N     0.33547   0.33188   0.14212   1.00000  Uiso   1.00
N003   N     0.33515   0.66570   0.14187   1.00000  Uiso   1.00
N004   N     0.67005   0.66647   0.13796   1.00000  Uiso   1.00
N005   N     0.40757   0.53417   0.29356   1.00000  Uiso   1.00
Fe001  Fe    0.50033   0.49814   0.15168   1.00000  Uiso   1.00
O001   O     0.53575   0.50039   0.23972   1.00000  Uiso   1.00
O002   O     0.47235   0.56678   0.34548   1.00000  Uiso   1.00
O003   O     0.26899   0.52178   0.27669   1.00000  Uiso   1.00
loop_
_geom_bond_atom_site_label_1
_geom_bond_atom_site_label_2
_geom_bond_distance
_geom_bond_site_symmetry_2
_ccdc_geom_bond_type
C001   C002    1.409   .     D
C001   C003    1.410   .     S
C001   C019    1.451   1_545 S
C002   C008    1.440   .     S
C002   N002    1.396   .     S
C003   C005    1.439   .     D
C003   N001    1.389   .     S
C004   C005    1.402   1_565 S
C004   C016    1.440   .     D
C004   C018    1.436   .     S
C005   C004    1.402   1_545 S
C005   C006    1.437   .     S
C006   C007    1.439   .     S
C006   C009    1.404   1_655 D
C007   C020    1.410   .     S
C007   N001    1.391   .     D
C008   C009    1.443   .     S
C008   C014    1.402   1_545 D
C009   C006    1.404   1_455 D
C009   C010    1.434   .     S
C010   C011    1.409   .     S
C010   N002    1.399   .     D
C011   C012    1.409   .     S
C011   C020    1.448   1_455 D
C012   C015    1.434   .     S
C012   N003    1.397   .     D
C013   C014    1.441   .     S
C013   C019    1.409   .     D
C013   N003    1.394   .     S
C014   C008    1.402   1_565 D
C014   C015    1.442   .     S
C015   C018    1.404   1_455 D
C016   C019    1.410   .     S
C016   N004    1.389   .     S
C017   C018    1.440   .     S
C017   C020    1.410   .     S
C017   N004    1.390   .     D
C018   C015    1.404   1_655 D
C019   C001    1.451   1_565 S
C020   C011    1.448   1_655 D
N001   Fe001   2.017   .     S
N002   Fe001   1.976   .     S
N003   Fe001   1.986   .     S
N004   Fe001   2.027   .     S
N005   O001    1.551   .     S
N005   O002    1.206   .     S
N005   O003    1.217   .     D
Fe001  O001    1.790   .     S
