data_e+0.6-opt
_audit_creation_date              2024-12-22
_audit_creation_method            'Materials Studio'
_symmetry_space_group_name_H-M    'P1'
_symmetry_Int_Tables_number       1
_symmetry_cell_setting            triclinic
loop_
_symmetry_equiv_pos_as_xyz
  x,y,z
_cell_length_a                    8.3994
_cell_length_b                    8.3994
_cell_length_c                    20.0487
_cell_angle_alpha                 90.0000
_cell_angle_beta                  90.0000
_cell_angle_gamma                 90.0000
loop_
_atom_site_label
_atom_site_type_symbol
_atom_site_fract_x
_atom_site_fract_y
_atom_site_fract_z
_atom_site_U_iso_or_equiv
_atom_site_adp_type
_atom_site_occupancy
C001   C     0.50231   0.08498   0.14102   1.00000  Uiso   1.00
C002   C     0.35594   0.16706   0.14104   1.00000  Uiso   1.00
C003   C     0.64880   0.16679   0.14002   1.00000  Uiso   1.00
C004   C     0.79792   0.91553   0.13809   1.00000  Uiso   1.00
C005   C     0.79788   0.08195   0.13843   1.00000  Uiso   1.00
C006   C     0.91884   0.20330   0.13823   1.00000  Uiso   1.00
C007   C     0.83370   0.35225   0.13922   1.00000  Uiso   1.00
C008   C     0.20692   0.08194   0.13907   1.00000  Uiso   1.00
C009   C     0.08542   0.20361   0.13855   1.00000  Uiso   1.00
C010   C     0.16982   0.35232   0.14005   1.00000  Uiso   1.00
C011   C     0.08799   0.49876   0.13949   1.00000  Uiso   1.00
C012   C     0.16982   0.64526   0.13926   1.00000  Uiso   1.00
C013   C     0.35589   0.83039   0.14038   1.00000  Uiso   1.00
C014   C     0.20685   0.91560   0.13879   1.00000  Uiso   1.00
C015   C     0.08539   0.79395   0.13800   1.00000  Uiso   1.00
C016   C     0.64881   0.83061   0.13916   1.00000  Uiso   1.00
C017   C     0.83371   0.64524   0.13836   1.00000  Uiso   1.00
C018   C     0.91887   0.79422   0.13767   1.00000  Uiso   1.00
C019   C     0.50231   0.91239   0.14059   1.00000  Uiso   1.00
C020   C     0.91565   0.49872   0.13909   1.00000  Uiso   1.00
N001   N     0.66959   0.33097   0.14032   1.00000  Uiso   1.00
N002   N     0.33471   0.33148   0.14213   1.00000  Uiso   1.00
N003   N     0.33456   0.66612   0.14104   1.00000  Uiso   1.00
N004   N     0.66975   0.66658   0.13881   1.00000  Uiso   1.00
N005   N     0.41705   0.53131   0.29011   1.00000  Uiso   1.00
Fe001  Fe    0.50007   0.49892   0.14960   1.00000  Uiso   1.00
O001   O     0.53347   0.50760   0.24268   1.00000  Uiso   1.00
O002   O     0.47230   0.55977   0.34649   1.00000  Uiso   1.00
O003   O     0.27465   0.52198   0.27496   1.00000  Uiso   1.00
loop_
_geom_bond_atom_site_label_1
_geom_bond_atom_site_label_2
_geom_bond_distance
_geom_bond_site_symmetry_2
_ccdc_geom_bond_type
C001   C002    1.410   .     D
C001   C003    1.409   .     S
C001   C019    1.450   1_545 S
C002   C008    1.442   .     S
C002   N002    1.393   .     S
C003   C005    1.441   .     D
C003   N001    1.390   .     S
C004   C005    1.398   1_565 S
C004   C016    1.441   .     D
C004   C018    1.439   .     S
C005   C004    1.398   1_545 S
C005   C006    1.439   .     S
C006   C007    1.441   .     S
C006   C009    1.399   1_655 D
C007   C020    1.410   .     S
C007   N001    1.390   .     D
C008   C009    1.444   .     S
C008   C014    1.397   1_545 D
C009   C006    1.399   1_455 D
C009   C010    1.437   .     S
C010   C011    1.409   .     S
C010   N002    1.397   .     D
C011   C012    1.410   .     S
C011   C020    1.448   1_455 D
C012   C015    1.436   .     S
C012   N003    1.395   .     D
C013   C014    1.442   .     S
C013   C019    1.410   .     D
C013   N003    1.391   .     S
C014   C008    1.397   1_565 D
C014   C015    1.444   .     S
C015   C018    1.399   1_455 D
C016   C019    1.410   .     S
C016   N004    1.389   .     S
C017   C018    1.441   .     S
C017   C020    1.410   .     S
C017   N004    1.389   .     D
C018   C015    1.399   1_655 D
C019   C001    1.450   1_565 S
C020   C011    1.448   1_655 D
N001   Fe001   2.013   .     S
N002   Fe001   1.982   .     S
N003   Fe001   1.984   .     S
N004   Fe001   2.015   .     S
N005   O001    1.378   .     S
N005   O002    1.245   .     S
N005   O003    1.236   .     D
Fe001  O001    1.888   .     S
