data_e-0.2-opt
_audit_creation_date              2024-12-22
_audit_creation_method            'Materials Studio'
_symmetry_space_group_name_H-M    'P1'
_symmetry_Int_Tables_number       1
_symmetry_cell_setting            triclinic
loop_
_symmetry_equiv_pos_as_xyz
  x,y,z
_cell_length_a                    8.3994
_cell_length_b                    8.3994
_cell_length_c                    20.0487
_cell_angle_alpha                 90.0000
_cell_angle_beta                  90.0000
_cell_angle_gamma                 90.0000
loop_
_atom_site_label
_atom_site_type_symbol
_atom_site_fract_x
_atom_site_fract_y
_atom_site_fract_z
_atom_site_U_iso_or_equiv
_atom_site_adp_type
_atom_site_occupancy
C001   C     0.50260   0.08499   0.14107   1.00000  Uiso   1.00
C002   C     0.35630   0.16708   0.14117   1.00000  Uiso   1.00
C003   C     0.64914   0.16674   0.13995   1.00000  Uiso   1.00
C004   C     0.79816   0.91531   0.13813   1.00000  Uiso   1.00
C005   C     0.79817   0.08206   0.13847   1.00000  Uiso   1.00
C006   C     0.91894   0.20334   0.13833   1.00000  Uiso   1.00
C007   C     0.83393   0.35216   0.13918   1.00000  Uiso   1.00
C008   C     0.20733   0.08210   0.13922   1.00000  Uiso   1.00
C009   C     0.08590   0.20377   0.13872   1.00000  Uiso   1.00
C010   C     0.16998   0.35233   0.14024   1.00000  Uiso   1.00
C011   C     0.08816   0.49878   0.13973   1.00000  Uiso   1.00
C012   C     0.16994   0.64533   0.13961   1.00000  Uiso   1.00
C013   C     0.35618   0.83033   0.14069   1.00000  Uiso   1.00
C014   C     0.20719   0.91546   0.13902   1.00000  Uiso   1.00
C015   C     0.08582   0.79387   0.13826   1.00000  Uiso   1.00
C016   C     0.64908   0.83053   0.13911   1.00000  Uiso   1.00
C017   C     0.83392   0.64526   0.13832   1.00000  Uiso   1.00
C018   C     0.91889   0.79413   0.13779   1.00000  Uiso   1.00
C019   C     0.50257   0.91230   0.14070   1.00000  Uiso   1.00
C020   C     0.91578   0.49871   0.13913   1.00000  Uiso   1.00
N001   N     0.66970   0.33089   0.13997   1.00000  Uiso   1.00
N002   N     0.33518   0.33170   0.14219   1.00000  Uiso   1.00
N003   N     0.33495   0.66590   0.14144   1.00000  Uiso   1.00
N004   N     0.66982   0.66650   0.13846   1.00000  Uiso   1.00
N005   N     0.41311   0.53240   0.29057   1.00000  Uiso   1.00
Fe001  Fe    0.49996   0.49846   0.15047   1.00000  Uiso   1.00
O001   O     0.53407   0.50393   0.24135   1.00000  Uiso   1.00
O002   O     0.47181   0.56389   0.34492   1.00000  Uiso   1.00
O003   O     0.27240   0.52133   0.27443   1.00000  Uiso   1.00
loop_
_geom_bond_atom_site_label_1
_geom_bond_atom_site_label_2
_geom_bond_distance
_geom_bond_site_symmetry_2
_ccdc_geom_bond_type
C001   C002    1.409   .     D
C001   C003    1.410   .     S
C001   C019    1.450   1_545 S
C002   C008    1.441   .     S
C002   N002    1.394   .     S
C003   C005    1.440   .     D
C003   N001    1.390   .     S
C004   C005    1.401   1_565 S
C004   C016    1.441   .     D
C004   C018    1.437   .     S
C005   C004    1.401   1_545 S
C005   C006    1.438   .     S
C006   C007    1.440   .     S
C006   C009    1.402   1_655 D
C007   C020    1.410   .     S
C007   N001    1.391   .     D
C008   C009    1.444   .     S
C008   C014    1.400   1_545 D
C009   C006    1.402   1_455 D
C009   C010    1.434   .     S
C010   C011    1.409   .     S
C010   N002    1.399   .     D
C011   C012    1.410   .     S
C011   C020    1.448   1_455 D
C012   C015    1.434   .     S
C012   N003    1.397   .     D
C013   C014    1.442   .     S
C013   C019    1.409   .     D
C013   N003    1.393   .     S
C014   C008    1.400   1_565 D
C014   C015    1.443   .     S
C015   C018    1.402   1_455 D
C016   C019    1.410   .     S
C016   N004    1.389   .     S
C017   C018    1.440   .     S
C017   C020    1.410   .     S
C017   N004    1.390   .     D
C018   C015    1.402   1_655 D
C019   C001    1.450   1_565 S
C020   C011    1.448   1_655 D
N001   Fe001   2.014   .     S
N002   Fe001   1.976   .     S
N003   Fe001   1.983   .     S
N004   Fe001   2.021   .     S
N005   O001    1.436   .     S
N005   O002    1.225   .     S
N005   O003    1.229   .     D
Fe001  O001    1.845   .     S
