data_e+0.8-opt
_audit_creation_date              2024-12-22
_audit_creation_method            'Materials Studio'
_symmetry_space_group_name_H-M    'P1'
_symmetry_Int_Tables_number       1
_symmetry_cell_setting            triclinic
loop_
_symmetry_equiv_pos_as_xyz
  x,y,z
_cell_length_a                    8.3994
_cell_length_b                    8.3994
_cell_length_c                    20.0487
_cell_angle_alpha                 90.0000
_cell_angle_beta                  90.0000
_cell_angle_gamma                 90.0000
loop_
_atom_site_label
_atom_site_type_symbol
_atom_site_fract_x
_atom_site_fract_y
_atom_site_fract_z
_atom_site_U_iso_or_equiv
_atom_site_adp_type
_atom_site_occupancy
C001   C     0.50215   0.08529   0.14114   1.00000  Uiso   1.00
C002   C     0.35573   0.16735   0.14118   1.00000  Uiso   1.00
C003   C     0.64863   0.16714   0.14012   1.00000  Uiso   1.00
C004   C     0.79775   0.91587   0.13812   1.00000  Uiso   1.00
C005   C     0.79771   0.08222   0.13857   1.00000  Uiso   1.00
C006   C     0.91873   0.20358   0.13831   1.00000  Uiso   1.00
C007   C     0.83357   0.35254   0.13916   1.00000  Uiso   1.00
C008   C     0.20673   0.08218   0.13924   1.00000  Uiso   1.00
C009   C     0.08521   0.20387   0.13866   1.00000  Uiso   1.00
C010   C     0.16971   0.35258   0.14002   1.00000  Uiso   1.00
C011   C     0.08787   0.49904   0.13927   1.00000  Uiso   1.00
C012   C     0.16973   0.64552   0.13901   1.00000  Uiso   1.00
C013   C     0.35569   0.83072   0.14031   1.00000  Uiso   1.00
C014   C     0.20669   0.91593   0.13883   1.00000  Uiso   1.00
C015   C     0.08520   0.79424   0.13788   1.00000  Uiso   1.00
C016   C     0.64867   0.83091   0.13911   1.00000  Uiso   1.00
C017   C     0.83357   0.64552   0.13811   1.00000  Uiso   1.00
C018   C     0.91877   0.79451   0.13755   1.00000  Uiso   1.00
C019   C     0.50216   0.91270   0.14061   1.00000  Uiso   1.00
C020   C     0.91551   0.49902   0.13886   1.00000  Uiso   1.00
N001   N     0.66948   0.33127   0.14034   1.00000  Uiso   1.00
N002   N     0.33451   0.33174   0.14218   1.00000  Uiso   1.00
N003   N     0.33438   0.66646   0.14081   1.00000  Uiso   1.00
N004   N     0.66967   0.66691   0.13864   1.00000  Uiso   1.00
N005   N     0.41839   0.52917   0.29015   1.00000  Uiso   1.00
Fe001  Fe    0.50016   0.49943   0.14932   1.00000  Uiso   1.00
O001   O     0.53404   0.50920   0.24280   1.00000  Uiso   1.00
O002   O     0.47294   0.55332   0.34731   1.00000  Uiso   1.00
O003   O     0.27564   0.52139   0.27504   1.00000  Uiso   1.00
loop_
_geom_bond_atom_site_label_1
_geom_bond_atom_site_label_2
_geom_bond_distance
_geom_bond_site_symmetry_2
_ccdc_geom_bond_type
C001   C002    1.410   .     D
C001   C003    1.409   .     S
C001   C019    1.450   1_545 S
C002   C008    1.442   .     S
C002   N002    1.392   .     S
C003   C005    1.441   .     D
C003   N001    1.390   .     S
C004   C005    1.397   1_565 S
C004   C016    1.441   .     D
C004   C018    1.440   .     S
C005   C004    1.397   1_545 S
C005   C006    1.440   .     S
C006   C007    1.441   .     S
C006   C009    1.398   1_655 D
C007   C020    1.410   .     S
C007   N001    1.390   .     D
C008   C009    1.445   .     S
C008   C014    1.396   1_545 D
C009   C006    1.398   1_455 D
C009   C010    1.437   .     S
C010   C011    1.409   .     S
C010   N002    1.396   .     D
C011   C012    1.409   .     S
C011   C020    1.448   1_455 D
C012   C015    1.437   .     S
C012   N003    1.395   .     D
C013   C014    1.442   .     S
C013   C019    1.410   .     D
C013   N003    1.391   .     S
C014   C008    1.396   1_565 D
C014   C015    1.444   .     S
C015   C018    1.398   1_455 D
C016   C019    1.410   .     S
C016   N004    1.389   .     S
C017   C018    1.442   .     S
C017   C020    1.410   .     S
C017   N004    1.388   .     D
C018   C015    1.398   1_655 D
C019   C001    1.450   1_565 S
C020   C011    1.448   1_655 D
N001   Fe001   2.012   .     S
N002   Fe001   1.985   .     S
N003   Fe001   1.984   .     S
N004   Fe001   2.013   .     S
N005   O001    1.369   .     S
N005   O002    1.251   .     S
N005   O003    1.238   .     D
Fe001  O001    1.897   .     S
