data_e+0.2-opt
_audit_creation_date              2024-12-22
_audit_creation_method            'Materials Studio'
_symmetry_space_group_name_H-M    'P1'
_symmetry_Int_Tables_number       1
_symmetry_cell_setting            triclinic
loop_
_symmetry_equiv_pos_as_xyz
  x,y,z
_cell_length_a                    8.3994
_cell_length_b                    8.3994
_cell_length_c                    20.0487
_cell_angle_alpha                 90.0000
_cell_angle_beta                  90.0000
_cell_angle_gamma                 90.0000
loop_
_atom_site_label
_atom_site_type_symbol
_atom_site_fract_x
_atom_site_fract_y
_atom_site_fract_z
_atom_site_U_iso_or_equiv
_atom_site_adp_type
_atom_site_occupancy
C001   C     0.50245   0.08497   0.14102   1.00000  Uiso   1.00
C002   C     0.35612   0.16704   0.14108   1.00000  Uiso   1.00
C003   C     0.64897   0.16675   0.13997   1.00000  Uiso   1.00
C004   C     0.79804   0.91541   0.13814   1.00000  Uiso   1.00
C005   C     0.79802   0.08197   0.13846   1.00000  Uiso   1.00
C006   C     0.91889   0.20331   0.13831   1.00000  Uiso   1.00
C007   C     0.83381   0.35218   0.13923   1.00000  Uiso   1.00
C008   C     0.20711   0.08200   0.13915   1.00000  Uiso   1.00
C009   C     0.08565   0.20367   0.13866   1.00000  Uiso   1.00
C010   C     0.16988   0.35229   0.14016   1.00000  Uiso   1.00
C011   C     0.08807   0.49876   0.13964   1.00000  Uiso   1.00
C012   C     0.16985   0.64528   0.13948   1.00000  Uiso   1.00
C013   C     0.35603   0.83035   0.14054   1.00000  Uiso   1.00
C014   C     0.20701   0.91550   0.13892   1.00000  Uiso   1.00
C015   C     0.08560   0.79390   0.13818   1.00000  Uiso   1.00
C016   C     0.64895   0.83054   0.13916   1.00000  Uiso   1.00
C017   C     0.83381   0.64524   0.13841   1.00000  Uiso   1.00
C018   C     0.91887   0.79415   0.13778   1.00000  Uiso   1.00
C019   C     0.50243   0.91231   0.14064   1.00000  Uiso   1.00
C020   C     0.91570   0.49870   0.13915   1.00000  Uiso   1.00
N001   N     0.66962   0.33090   0.14016   1.00000  Uiso   1.00
N002   N     0.33496   0.33157   0.14214   1.00000  Uiso   1.00
N003   N     0.33476   0.66598   0.14126   1.00000  Uiso   1.00
N004   N     0.66976   0.66651   0.13870   1.00000  Uiso   1.00
N005   N     0.41530   0.53200   0.29018   1.00000  Uiso   1.00
Fe001  Fe    0.49996   0.49861   0.15001   1.00000  Uiso   1.00
O001   O     0.53370   0.50548   0.24206   1.00000  Uiso   1.00
O002   O     0.47203   0.56253   0.34553   1.00000  Uiso   1.00
O003   O     0.27364   0.52172   0.27454   1.00000  Uiso   1.00
loop_
_geom_bond_atom_site_label_1
_geom_bond_atom_site_label_2
_geom_bond_distance
_geom_bond_site_symmetry_2
_ccdc_geom_bond_type
C001   C002    1.409   .     D
C001   C003    1.410   .     S
C001   C019    1.450   1_545 S
C002   C008    1.442   .     S
C002   N002    1.393   .     S
C003   C005    1.441   .     D
C003   N001    1.390   .     S
C004   C005    1.399   1_565 S
C004   C016    1.441   .     D
C004   C018    1.438   .     S
C005   C004    1.399   1_545 S
C005   C006    1.439   .     S
C006   C007    1.440   .     S
C006   C009    1.401   1_655 D
C007   C020    1.410   .     S
C007   N001    1.391   .     D
C008   C009    1.444   .     S
C008   C014    1.399   1_545 D
C009   C006    1.401   1_455 D
C009   C010    1.435   .     S
C010   C011    1.409   .     S
C010   N002    1.398   .     D
C011   C012    1.409   .     S
C011   C020    1.448   1_455 D
C012   C015    1.435   .     S
C012   N003    1.397   .     D
C013   C014    1.442   .     S
C013   C019    1.409   .     D
C013   N003    1.392   .     S
C014   C008    1.399   1_565 D
C014   C015    1.443   .     S
C015   C018    1.400   1_455 D
C016   C019    1.410   .     S
C016   N004    1.389   .     S
C017   C018    1.441   .     S
C017   C020    1.410   .     S
C017   N004    1.389   .     D
C018   C015    1.400   1_655 D
C019   C001    1.450   1_565 S
C020   C011    1.448   1_655 D
N001   Fe001   2.013   .     S
N002   Fe001   1.978   .     S
N003   Fe001   1.983   .     S
N004   Fe001   2.019   .     S
N005   O001    1.403   .     S
N005   O002    1.235   .     S
N005   O003    1.233   .     D
Fe001  O001    1.868   .     S
