data_e+0.0-opt
_audit_creation_date              2024-12-22
_audit_creation_method            'Materials Studio'
_symmetry_space_group_name_H-M    'P1'
_symmetry_Int_Tables_number       1
_symmetry_cell_setting            triclinic
loop_
_symmetry_equiv_pos_as_xyz
  x,y,z
_cell_length_a                    8.3994
_cell_length_b                    8.3994
_cell_length_c                    20.0487
_cell_angle_alpha                 90.0000
_cell_angle_beta                  90.0000
_cell_angle_gamma                 90.0000
loop_
_atom_site_label
_atom_site_type_symbol
_atom_site_fract_x
_atom_site_fract_y
_atom_site_fract_z
_atom_site_U_iso_or_equiv
_atom_site_adp_type
_atom_site_occupancy
C001   C     0.50252   0.08500   0.14109   1.00000  Uiso   1.00
C002   C     0.35619   0.16706   0.14117   1.00000  Uiso   1.00
C003   C     0.64904   0.16676   0.14000   1.00000  Uiso   1.00
C004   C     0.79809   0.91538   0.13818   1.00000  Uiso   1.00
C005   C     0.79809   0.08203   0.13852   1.00000  Uiso   1.00
C006   C     0.91890   0.20333   0.13837   1.00000  Uiso   1.00
C007   C     0.83386   0.35219   0.13922   1.00000  Uiso   1.00
C008   C     0.20721   0.08206   0.13925   1.00000  Uiso   1.00
C009   C     0.08575   0.20373   0.13874   1.00000  Uiso   1.00
C010   C     0.16993   0.35232   0.14022   1.00000  Uiso   1.00
C011   C     0.08809   0.49878   0.13969   1.00000  Uiso   1.00
C012   C     0.16989   0.64532   0.13954   1.00000  Uiso   1.00
C013   C     0.35610   0.83034   0.14064   1.00000  Uiso   1.00
C014   C     0.20708   0.91550   0.13902   1.00000  Uiso   1.00
C015   C     0.08569   0.79390   0.13825   1.00000  Uiso   1.00
C016   C     0.64900   0.83054   0.13916   1.00000  Uiso   1.00
C017   C     0.83386   0.64527   0.13836   1.00000  Uiso   1.00
C018   C     0.91888   0.79416   0.13782   1.00000  Uiso   1.00
C019   C     0.50250   0.91232   0.14070   1.00000  Uiso   1.00
C020   C     0.91574   0.49872   0.13914   1.00000  Uiso   1.00
N001   N     0.66964   0.33090   0.14006   1.00000  Uiso   1.00
N002   N     0.33507   0.33165   0.14218   1.00000  Uiso   1.00
N003   N     0.33486   0.66596   0.14133   1.00000  Uiso   1.00
N004   N     0.66978   0.66654   0.13856   1.00000  Uiso   1.00
N005   N     0.41432   0.53209   0.29021   1.00000  Uiso   1.00
Fe001  Fe    0.49996   0.49855   0.15017   1.00000  Uiso   1.00
O001   O     0.53398   0.50486   0.24164   1.00000  Uiso   1.00
O002   O     0.47182   0.56295   0.34512   1.00000  Uiso   1.00
O003   O     0.27315   0.52142   0.27427   1.00000  Uiso   1.00
loop_
_geom_bond_atom_site_label_1
_geom_bond_atom_site_label_2
_geom_bond_distance
_geom_bond_site_symmetry_2
_ccdc_geom_bond_type
C001   C002    1.409   .     D
C001   C003    1.409   .     S
C001   C019    1.450   1_545 S
C002   C008    1.441   .     S
C002   N002    1.394   .     S
C003   C005    1.440   .     D
C003   N001    1.389   .     S
C004   C005    1.400   1_565 S
C004   C016    1.441   .     D
C004   C018    1.437   .     S
C005   C004    1.400   1_545 S
C005   C006    1.438   .     S
C006   C007    1.440   .     S
C006   C009    1.401   1_655 D
C007   C020    1.410   .     S
C007   N001    1.391   .     D
C008   C009    1.444   .     S
C008   C014    1.399   1_545 D
C009   C006    1.401   1_455 D
C009   C010    1.435   .     S
C010   C011    1.409   .     S
C010   N002    1.398   .     D
C011   C012    1.410   .     S
C011   C020    1.448   1_455 D
C012   C015    1.435   .     S
C012   N003    1.397   .     D
C013   C014    1.442   .     S
C013   C019    1.409   .     D
C013   N003    1.392   .     S
C014   C008    1.399   1_565 D
C014   C015    1.443   .     S
C015   C018    1.401   1_455 D
C016   C019    1.410   .     S
C016   N004    1.389   .     S
C017   C018    1.440   .     S
C017   C020    1.410   .     S
C017   N004    1.390   .     D
C018   C015    1.401   1_655 D
C019   C001    1.450   1_565 S
C020   C011    1.448   1_655 D
N001   Fe001   2.014   .     S
N002   Fe001   1.977   .     S
N003   Fe001   1.983   .     S
N004   Fe001   2.020   .     S
N005   O001    1.418   .     S
N005   O002    1.230   .     S
N005   O003    1.231   .     D
Fe001  O001    1.857   .     S
