data_e-0.4-opt
_audit_creation_date              2024-12-22
_audit_creation_method            'Materials Studio'
_symmetry_space_group_name_H-M    'P1'
_symmetry_Int_Tables_number       1
_symmetry_cell_setting            triclinic
loop_
_symmetry_equiv_pos_as_xyz
  x,y,z
_cell_length_a                    8.3994
_cell_length_b                    8.3994
_cell_length_c                    20.0487
_cell_angle_alpha                 90.0000
_cell_angle_beta                  90.0000
_cell_angle_gamma                 90.0000
loop_
_atom_site_label
_atom_site_type_symbol
_atom_site_fract_x
_atom_site_fract_y
_atom_site_fract_z
_atom_site_U_iso_or_equiv
_atom_site_adp_type
_atom_site_occupancy
C001   C     0.50268   0.08498   0.14108   1.00000  Uiso   1.00
C002   C     0.35635   0.16704   0.14119   1.00000  Uiso   1.00
C003   C     0.64927   0.16667   0.13989   1.00000  Uiso   1.00
C004   C     0.79825   0.91529   0.13808   1.00000  Uiso   1.00
C005   C     0.79827   0.08207   0.13843   1.00000  Uiso   1.00
C006   C     0.91899   0.20332   0.13830   1.00000  Uiso   1.00
C007   C     0.83405   0.35212   0.13910   1.00000  Uiso   1.00
C008   C     0.20741   0.08215   0.13923   1.00000  Uiso   1.00
C009   C     0.08601   0.20377   0.13871   1.00000  Uiso   1.00
C010   C     0.16999   0.35232   0.14025   1.00000  Uiso   1.00
C011   C     0.08819   0.49880   0.13974   1.00000  Uiso   1.00
C012   C     0.16993   0.64538   0.13967   1.00000  Uiso   1.00
C013   C     0.35622   0.83038   0.14076   1.00000  Uiso   1.00
C014   C     0.20725   0.91544   0.13904   1.00000  Uiso   1.00
C015   C     0.08592   0.79391   0.13827   1.00000  Uiso   1.00
C016   C     0.64919   0.83059   0.13904   1.00000  Uiso   1.00
C017   C     0.83403   0.64530   0.13822   1.00000  Uiso   1.00
C018   C     0.91893   0.79416   0.13774   1.00000  Uiso   1.00
C019   C     0.50264   0.91232   0.14071   1.00000  Uiso   1.00
C020   C     0.91584   0.49871   0.13906   1.00000  Uiso   1.00
N001   N     0.66981   0.33083   0.13982   1.00000  Uiso   1.00
N002   N     0.33524   0.33173   0.14220   1.00000  Uiso   1.00
N003   N     0.33497   0.66591   0.14154   1.00000  Uiso   1.00
N004   N     0.66990   0.66654   0.13828   1.00000  Uiso   1.00
N005   N     0.41181   0.53268   0.29105   1.00000  Uiso   1.00
Fe001  Fe    0.50001   0.49839   0.15075   1.00000  Uiso   1.00
O001   O     0.53437   0.50309   0.24098   1.00000  Uiso   1.00
O002   O     0.47184   0.56451   0.34482   1.00000  Uiso   1.00
O003   O     0.27164   0.52121   0.27466   1.00000  Uiso   1.00
loop_
_geom_bond_atom_site_label_1
_geom_bond_atom_site_label_2
_geom_bond_distance
_geom_bond_site_symmetry_2
_ccdc_geom_bond_type
C001   C002    1.409   .     D
C001   C003    1.410   .     S
C001   C019    1.450   1_545 S
C002   C008    1.440   .     S
C002   N002    1.395   .     S
C003   C005    1.439   .     D
C003   N001    1.390   .     S
C004   C005    1.401   1_565 S
C004   C016    1.440   .     D
C004   C018    1.436   .     S
C005   C004    1.401   1_545 S
C005   C006    1.437   .     S
C006   C007    1.439   .     S
C006   C009    1.403   1_655 D
C007   C020    1.410   .     S
C007   N001    1.391   .     D
C008   C009    1.443   .     S
C008   C014    1.400   1_545 D
C009   C006    1.403   1_455 D
C009   C010    1.434   .     S
C010   C011    1.409   .     S
C010   N002    1.399   .     D
C011   C012    1.410   .     S
C011   C020    1.448   1_455 D
C012   C015    1.434   .     S
C012   N003    1.397   .     D
C013   C014    1.441   .     S
C013   C019    1.409   .     D
C013   N003    1.393   .     S
C014   C008    1.400   1_565 D
C014   C015    1.443   .     S
C015   C018    1.403   1_455 D
C016   C019    1.410   .     S
C016   N004    1.389   .     S
C017   C018    1.439   .     S
C017   C020    1.410   .     S
C017   N004    1.390   .     D
C018   C015    1.403   1_655 D
C019   C001    1.450   1_565 S
C020   C011    1.448   1_655 D
N001   Fe001   2.016   .     S
N002   Fe001   1.976   .     S
N003   Fe001   1.984   .     S
N004   Fe001   2.023   .     S
N005   O001    1.459   .     S
N005   O002    1.220   .     S
N005   O003    1.226   .     D
Fe001  O001    1.832   .     S
