data_e+0.4-opt
_audit_creation_date              2024-12-22
_audit_creation_method            'Materials Studio'
_symmetry_space_group_name_H-M    'P1'
_symmetry_Int_Tables_number       1
_symmetry_cell_setting            triclinic
loop_
_symmetry_equiv_pos_as_xyz
  x,y,z
_cell_length_a                    8.3994
_cell_length_b                    8.3994
_cell_length_c                    20.0487
_cell_angle_alpha                 90.0000
_cell_angle_beta                  90.0000
_cell_angle_gamma                 90.0000
loop_
_atom_site_label
_atom_site_type_symbol
_atom_site_fract_x
_atom_site_fract_y
_atom_site_fract_z
_atom_site_U_iso_or_equiv
_atom_site_adp_type
_atom_site_occupancy
C001   C     0.50240   0.08495   0.14096   1.00000  Uiso   1.00
C002   C     0.35603   0.16703   0.14101   1.00000  Uiso   1.00
C003   C     0.64888   0.16675   0.13995   1.00000  Uiso   1.00
C004   C     0.79798   0.91543   0.13809   1.00000  Uiso   1.00
C005   C     0.79795   0.08194   0.13840   1.00000  Uiso   1.00
C006   C     0.91888   0.20328   0.13824   1.00000  Uiso   1.00
C007   C     0.83376   0.35220   0.13922   1.00000  Uiso   1.00
C008   C     0.20703   0.08192   0.13907   1.00000  Uiso   1.00
C009   C     0.08553   0.20364   0.13857   1.00000  Uiso   1.00
C010   C     0.16986   0.35229   0.14009   1.00000  Uiso   1.00
C011   C     0.08804   0.49874   0.13957   1.00000  Uiso   1.00
C012   C     0.16984   0.64525   0.13939   1.00000  Uiso   1.00
C013   C     0.35596   0.83035   0.14045   1.00000  Uiso   1.00
C014   C     0.20695   0.91555   0.13883   1.00000  Uiso   1.00
C015   C     0.08550   0.79389   0.13809   1.00000  Uiso   1.00
C016   C     0.64887   0.83055   0.13916   1.00000  Uiso   1.00
C017   C     0.83377   0.64520   0.13842   1.00000  Uiso   1.00
C018   C     0.91887   0.79416   0.13773   1.00000  Uiso   1.00
C019   C     0.50239   0.91232   0.14058   1.00000  Uiso   1.00
C020   C     0.91567   0.49869   0.13913   1.00000  Uiso   1.00
N001   N     0.66960   0.33091   0.14023   1.00000  Uiso   1.00
N002   N     0.33483   0.33150   0.14210   1.00000  Uiso   1.00
N003   N     0.33466   0.66602   0.14118   1.00000  Uiso   1.00
N004   N     0.66975   0.66652   0.13880   1.00000  Uiso   1.00
N005   N     0.41617   0.53186   0.29020   1.00000  Uiso   1.00
Fe001  Fe    0.49999   0.49869   0.14985   1.00000  Uiso   1.00
O001   O     0.53344   0.50612   0.24245   1.00000  Uiso   1.00
O002   O     0.47228   0.56194   0.34599   1.00000  Uiso   1.00
O003   O     0.27408   0.52193   0.27489   1.00000  Uiso   1.00
loop_
_geom_bond_atom_site_label_1
_geom_bond_atom_site_label_2
_geom_bond_distance
_geom_bond_site_symmetry_2
_ccdc_geom_bond_type
C001   C002    1.409   .     D
C001   C003    1.409   .     S
C001   C019    1.450   1_545 S
C002   C008    1.442   .     S
C002   N002    1.393   .     S
C003   C005    1.441   .     D
C003   N001    1.390   .     S
C004   C005    1.399   1_565 S
C004   C016    1.441   .     D
C004   C018    1.438   .     S
C005   C004    1.399   1_545 S
C005   C006    1.439   .     S
C006   C007    1.441   .     S
C006   C009    1.400   1_655 D
C007   C020    1.410   .     S
C007   N001    1.391   .     D
C008   C009    1.445   .     S
C008   C014    1.397   1_545 D
C009   C006    1.400   1_455 D
C009   C010    1.436   .     S
C010   C011    1.409   .     S
C010   N002    1.397   .     D
C011   C012    1.409   .     S
C011   C020    1.448   1_455 D
C012   C015    1.436   .     S
C012   N003    1.396   .     D
C013   C014    1.442   .     S
C013   C019    1.409   .     D
C013   N003    1.392   .     S
C014   C008    1.397   1_565 D
C014   C015    1.444   .     S
C015   C018    1.400   1_455 D
C016   C019    1.409   .     S
C016   N004    1.389   .     S
C017   C018    1.441   .     S
C017   C020    1.410   .     S
C017   N004    1.389   .     D
C018   C015    1.400   1_655 D
C019   C001    1.450   1_565 S
C020   C011    1.448   1_655 D
N001   Fe001   2.013   .     S
N002   Fe001   1.980   .     S
N003   Fe001   1.983   .     S
N004   Fe001   2.017   .     S
N005   O001    1.391   .     S
N005   O002    1.240   .     S
N005   O003    1.235   .     D
Fe001  O001    1.879   .     S
