data_e-1.0-opt
_audit_creation_date              2024-12-22
_audit_creation_method            'Materials Studio'
_symmetry_space_group_name_H-M    'P1'
_symmetry_Int_Tables_number       1
_symmetry_cell_setting            triclinic
loop_
_symmetry_equiv_pos_as_xyz
  x,y,z
_cell_length_a                    8.3994
_cell_length_b                    8.3994
_cell_length_c                    20.0487
_cell_angle_alpha                 90.0000
_cell_angle_beta                  90.0000
_cell_angle_gamma                 90.0000
loop_
_atom_site_label
_atom_site_type_symbol
_atom_site_fract_x
_atom_site_fract_y
_atom_site_fract_z
_atom_site_U_iso_or_equiv
_atom_site_adp_type
_atom_site_occupancy
C001   C     0.50292   0.08493   0.14052   1.00000  Uiso   1.00
C002   C     0.35673   0.16698   0.14070   1.00000  Uiso   1.00
C003   C     0.64955   0.16653   0.13930   1.00000  Uiso   1.00
C004   C     0.79849   0.91510   0.13775   1.00000  Uiso   1.00
C005   C     0.79860   0.08200   0.13803   1.00000  Uiso   1.00
C006   C     0.91929   0.20315   0.13795   1.00000  Uiso   1.00
C007   C     0.83434   0.35202   0.13862   1.00000  Uiso   1.00
C008   C     0.20779   0.08226   0.13869   1.00000  Uiso   1.00
C009   C     0.08643   0.20369   0.13831   1.00000  Uiso   1.00
C010   C     0.17031   0.35240   0.13999   1.00000  Uiso   1.00
C011   C     0.08840   0.49874   0.13961   1.00000  Uiso   1.00
C012   C     0.17022   0.64520   0.13973   1.00000  Uiso   1.00
C013   C     0.35650   0.83029   0.14063   1.00000  Uiso   1.00
C014   C     0.20757   0.91523   0.13864   1.00000  Uiso   1.00
C015   C     0.08626   0.79390   0.13807   1.00000  Uiso   1.00
C016   C     0.64935   0.83050   0.13860   1.00000  Uiso   1.00
C017   C     0.83427   0.64513   0.13788   1.00000  Uiso   1.00
C018   C     0.91913   0.79407   0.13752   1.00000  Uiso   1.00
C019   C     0.50283   0.91219   0.14030   1.00000  Uiso   1.00
C020   C     0.91603   0.49860   0.13873   1.00000  Uiso   1.00
N001   N     0.67023   0.33053   0.13907   1.00000  Uiso   1.00
N002   N     0.33553   0.33189   0.14200   1.00000  Uiso   1.00
N003   N     0.33519   0.66563   0.14197   1.00000  Uiso   1.00
N004   N     0.67022   0.66652   0.13767   1.00000  Uiso   1.00
N005   N     0.40459   0.53524   0.29549   1.00000  Uiso   1.00
Fe001  Fe    0.50077   0.49796   0.15205   1.00000  Uiso   1.00
O001   O     0.53783   0.49880   0.23852   1.00000  Uiso   1.00
O002   O     0.47235   0.56787   0.34629   1.00000  Uiso   1.00
O003   O     0.26728   0.52226   0.27801   1.00000  Uiso   1.00
loop_
_geom_bond_atom_site_label_1
_geom_bond_atom_site_label_2
_geom_bond_distance
_geom_bond_site_symmetry_2
_ccdc_geom_bond_type
C001   C002    1.408   .     D
C001   C003    1.410   .     S
C001   C019    1.451   1_545 S
C002   C008    1.440   .     S
C002   N002    1.397   .     S
C003   C005    1.439   .     D
C003   N001    1.388   .     S
C004   C005    1.402   1_565 S
C004   C016    1.440   .     D
C004   C018    1.435   .     S
C005   C004    1.402   1_545 S
C005   C006    1.436   .     S
C006   C007    1.440   .     S
C006   C009    1.404   1_655 D
C007   C020    1.410   .     S
C007   N001    1.390   .     D
C008   C009    1.442   .     S
C008   C014    1.403   1_545 D
C009   C006    1.404   1_455 D
C009   C010    1.435   .     S
C010   C011    1.409   .     S
C010   N002    1.399   .     D
C011   C012    1.409   .     S
C011   C020    1.448   1_455 D
C012   C015    1.435   .     S
C012   N003    1.397   .     D
C013   C014    1.441   .     S
C013   C019    1.409   .     D
C013   N003    1.395   .     S
C014   C008    1.403   1_565 D
C014   C015    1.441   .     S
C015   C018    1.404   1_455 D
C016   C019    1.409   .     S
C016   N004    1.389   .     S
C017   C018    1.440   .     S
C017   C020    1.409   .     S
C017   N004    1.390   .     D
C018   C015    1.404   1_655 D
C019   C001    1.451   1_565 S
C020   C011    1.448   1_655 D
N001   Fe001   2.018   .     S
N002   Fe001   1.978   .     S
N003   Fe001   1.990   .     S
N004   Fe001   2.028   .     S
N005   O001    1.628   .     S
N005   O002    1.198   .     S
N005   O003    1.210   .     D
Fe001  O001    1.761   .     S
