data_e+0.8-opt
_audit_creation_date              2024-12-22
_audit_creation_method            'Materials Studio'
_symmetry_space_group_name_H-M    'P1'
_symmetry_Int_Tables_number       1
_symmetry_cell_setting            triclinic
loop_
_symmetry_equiv_pos_as_xyz
  x,y,z
_cell_length_a                    12.4751
_cell_length_b                    12.7382
_cell_length_c                    19.9905
_cell_angle_alpha                 90.0000
_cell_angle_beta                  90.0000
_cell_angle_gamma                 90.0000
loop_
_atom_site_label
_atom_site_type_symbol
_atom_site_fract_x
_atom_site_fract_y
_atom_site_fract_z
_atom_site_U_iso_or_equiv
_atom_site_adp_type
_atom_site_occupancy
C001   C     0.05166   0.04535   0.15475   1.00000  Uiso   1.00
C002   C     0.15208   0.10011   0.15440   1.00000  Uiso   1.00
C003   C     0.15144   0.21145   0.15308   1.00000  Uiso   1.00
C004   C     0.05163   0.26654   0.15227   1.00000  Uiso   1.00
C005   C     0.25289   0.04574   0.15544   1.00000  Uiso   1.00
C006   C     0.35303   0.10188   0.15628   1.00000  Uiso   1.00
C007   C     0.35196   0.21459   0.15550   1.00000  Uiso   1.00
C008   C     0.25071   0.26717   0.15328   1.00000  Uiso   1.00
C009   C     0.45310   0.04659   0.15796   1.00000  Uiso   1.00
C010   C     0.55169   0.10558   0.15889   1.00000  Uiso   1.00
C011   C     0.55168   0.22019   0.15951   1.00000  Uiso   1.00
C012   C     0.44988   0.27511   0.15798   1.00000  Uiso   1.00
C013   C     0.65028   0.04659   0.15846   1.00000  Uiso   1.00
C014   C     0.75033   0.10193   0.15713   1.00000  Uiso   1.00
C015   C     0.75139   0.21466   0.15664   1.00000  Uiso   1.00
C016   C     0.65348   0.27523   0.15886   1.00000  Uiso   1.00
C017   C     0.85044   0.04575   0.15619   1.00000  Uiso   1.00
C018   C     0.95123   0.10013   0.15489   1.00000  Uiso   1.00
C019   C     0.95185   0.21147   0.15374   1.00000  Uiso   1.00
C020   C     0.85259   0.26724   0.15454   1.00000  Uiso   1.00
C021   C     0.05161   0.37815   0.15093   1.00000  Uiso   1.00
C022   C     0.14993   0.43409   0.15059   1.00000  Uiso   1.00
C023   C     0.14993   0.54539   0.15077   1.00000  Uiso   1.00
C024   C     0.05162   0.60134   0.15127   1.00000  Uiso   1.00
C025   C     0.24871   0.37848   0.15211   1.00000  Uiso   1.00
C026   C     0.34661   0.43352   0.15459   1.00000  Uiso   1.00
C027   C     0.34662   0.54594   0.15473   1.00000  Uiso   1.00
C028   C     0.24872   0.60100   0.15242   1.00000  Uiso   1.00
C029   C     0.75676   0.43357   0.15637   1.00000  Uiso   1.00
C030   C     0.75676   0.54592   0.15656   1.00000  Uiso   1.00
C031   C     0.85457   0.37853   0.15370   1.00000  Uiso   1.00
C032   C     0.95333   0.43410   0.15161   1.00000  Uiso   1.00
C033   C     0.95333   0.54539   0.15179   1.00000  Uiso   1.00
C034   C     0.85457   0.60096   0.15404   1.00000  Uiso   1.00
C035   C     0.05164   0.71294   0.15280   1.00000  Uiso   1.00
C036   C     0.15145   0.76802   0.15360   1.00000  Uiso   1.00
C037   C     0.05166   0.93413   0.15494   1.00000  Uiso   1.00
C038   C     0.25071   0.71231   0.15374   1.00000  Uiso   1.00
C039   C     0.35197   0.76488   0.15589   1.00000  Uiso   1.00
C040   C     0.35304   0.87759   0.15654   1.00000  Uiso   1.00
C041   C     0.25290   0.93373   0.15560   1.00000  Uiso   1.00
C042   C     0.44989   0.70434   0.15833   1.00000  Uiso   1.00
C043   C     0.55168   0.75928   0.15987   1.00000  Uiso   1.00
C044   C     0.55169   0.87390   0.15912   1.00000  Uiso   1.00
C045   C     0.45310   0.93288   0.15808   1.00000  Uiso   1.00
C046   C     0.65349   0.70423   0.15928   1.00000  Uiso   1.00
C047   C     0.75139   0.76481   0.15709   1.00000  Uiso   1.00
C048   C     0.75033   0.87755   0.15740   1.00000  Uiso   1.00
C049   C     0.65028   0.93288   0.15858   1.00000  Uiso   1.00
C050   C     0.85260   0.71224   0.15505   1.00000  Uiso   1.00
C051   C     0.95186   0.76801   0.15427   1.00000  Uiso   1.00
C052   C     0.85044   0.93373   0.15635   1.00000  Uiso   1.00
C053   C     0.15208   0.87937   0.15473   1.00000  Uiso   1.00
C054   C     0.95124   0.87935   0.15523   1.00000  Uiso   1.00
N001   N     0.44430   0.38405   0.15855   1.00000  Uiso   1.00
N002   N     0.44432   0.59539   0.15878   1.00000  Uiso   1.00
N003   N     0.65917   0.38411   0.15975   1.00000  Uiso   1.00
N004   N     0.65916   0.59535   0.16013   1.00000  Uiso   1.00
N005   N     0.55029   0.48887   0.26073   1.00000  Uiso   1.00
O001   O     0.62568   0.48896   0.30278   1.00000  Uiso   1.00
Fe001  Fe    0.55185   0.48964   0.17314   1.00000  Uiso   1.00
H001   H     0.47410   0.48794   0.28296   1.00000  Uiso   1.00
loop_
_geom_bond_atom_site_label_1
_geom_bond_atom_site_label_2
_geom_bond_distance
_geom_bond_site_symmetry_2
_ccdc_geom_bond_type
C001   C002    1.434   .     D
C001   C018    1.434   1_455 S
C001   C037    1.417   1_545 S
C002   C003    1.419   .     S
C002   C005    1.436   .     S
C003   C004    1.429   .     D
C003   C008    1.427   .     S
C004   C019    1.429   1_455 S
C004   C021    1.422   .     S
C005   C006    1.440   .     S
C005   C041    1.427   1_545 D
C006   C007    1.436   .     S
C006   C009    1.434   .     D
C007   C008    1.430   .     S
C007   C012    1.445   .     D
C008   C025    1.418   .     D
C009   C010    1.441   .     S
C009   C045    1.448   1_545 S
C010   C011    1.460   .     D
C010   C013    1.441   .     S
C011   C012    1.450   .     S
C011   C016    1.451   .     S
C012   N001    1.389   .     S
C013   C014    1.434   .     D
C013   C049    1.449   1_545 S
C014   C015    1.436   .     S
C014   C017    1.439   .     S
C015   C016    1.445   .     S
C015   C020    1.430   .     D
C016   N003    1.389   .     D
C017   C018    1.436   .     S
C017   C052    1.427   1_545 D
C018   C001    1.434   1_655 S
C018   C019    1.418   .     D
C019   C004    1.429   1_655 S
C019   C020    1.428   .     S
C020   C031    1.418   .     S
C021   C022    1.419   .     D
C021   C032    1.418   1_455 S
C022   C023    1.418   .     S
C022   C025    1.422   .     S
C023   C024    1.419   .     D
C023   C028    1.422   .     S
C024   C033    1.418   1_455 S
C024   C035    1.422   .     S
C025   C026    1.409   .     S
C026   C027    1.432   .     S
C026   N001    1.374   .     D
C027   C028    1.409   .     S
C027   N002    1.374   .     D
C028   C038    1.418   .     D
C029   C030    1.431   .     S
C029   C031    1.408   .     D
C029   N003    1.372   .     S
C030   C034    1.408   .     S
C030   N004    1.373   .     D
C031   C032    1.422   .     S
C032   C021    1.418   1_655 S
C032   C033    1.418   .     D
C033   C024    1.418   1_655 S
C033   C034    1.422   .     S
C034   C050    1.418   .     D
C035   C036    1.429   .     S
C035   C051    1.429   1_455 D
C036   C038    1.427   .     S
C036   C053    1.419   .     D
C037   C001    1.417   1_565 S
C037   C053    1.434   .     S
C037   C054    1.434   1_455 D
C038   C039    1.430   .     S
C039   C040    1.436   .     S
C039   C042    1.445   .     D
C040   C041    1.440   .     S
C040   C045    1.434   .     D
C041   C005    1.427   1_565 D
C041   C053    1.436   .     S
C042   C043    1.450   .     S
C042   N002    1.390   .     S
C043   C044    1.460   .     S
C043   C046    1.451   .     D
C044   C045    1.441   .     S
C044   C049    1.441   .     D
C045   C009    1.448   1_565 S
C046   C047    1.445   .     S
C046   N004    1.389   .     S
C047   C048    1.436   .     D
C047   C050    1.430   .     S
C048   C049    1.434   .     S
C048   C052    1.440   .     S
C049   C013    1.449   1_565 S
C050   C051    1.428   .     S
C051   C035    1.429   1_655 D
C051   C054    1.418   .     S
C052   C017    1.427   1_565 D
C052   C054    1.436   .     S
C054   C037    1.434   1_655 D
N001   Fe001   1.922   .     S
N002   Fe001   1.923   .     S
N003   Fe001   1.916   .     S
N004   Fe001   1.916   .     S
N005   O001    1.261   .     D
N005   Fe001   1.751   .     S
N005   H001    1.049   .     S
