data_e-0.6-opt
_audit_creation_date              2024-12-22
_audit_creation_method            'Materials Studio'
_symmetry_space_group_name_H-M    'P1'
_symmetry_Int_Tables_number       1
_symmetry_cell_setting            triclinic
loop_
_symmetry_equiv_pos_as_xyz
  x,y,z
_cell_length_a                    12.4751
_cell_length_b                    12.7382
_cell_length_c                    19.9905
_cell_angle_alpha                 90.0000
_cell_angle_beta                  90.0000
_cell_angle_gamma                 90.0000
loop_
_atom_site_label
_atom_site_type_symbol
_atom_site_fract_x
_atom_site_fract_y
_atom_site_fract_z
_atom_site_U_iso_or_equiv
_atom_site_adp_type
_atom_site_occupancy
C001   C     0.05160   0.04535   0.15478   1.00000  Uiso   1.00
C002   C     0.15205   0.10010   0.15443   1.00000  Uiso   1.00
C003   C     0.15142   0.21148   0.15310   1.00000  Uiso   1.00
C004   C     0.05155   0.26654   0.15226   1.00000  Uiso   1.00
C005   C     0.25287   0.04578   0.15544   1.00000  Uiso   1.00
C006   C     0.35300   0.10191   0.15628   1.00000  Uiso   1.00
C007   C     0.35196   0.21461   0.15557   1.00000  Uiso   1.00
C008   C     0.25060   0.26716   0.15336   1.00000  Uiso   1.00
C009   C     0.45311   0.04660   0.15788   1.00000  Uiso   1.00
C010   C     0.55161   0.10550   0.15878   1.00000  Uiso   1.00
C011   C     0.55158   0.22023   0.15938   1.00000  Uiso   1.00
C012   C     0.44984   0.27514   0.15807   1.00000  Uiso   1.00
C013   C     0.65014   0.04660   0.15837   1.00000  Uiso   1.00
C014   C     0.75023   0.10195   0.15713   1.00000  Uiso   1.00
C015   C     0.75124   0.21467   0.15671   1.00000  Uiso   1.00
C016   C     0.65334   0.27525   0.15892   1.00000  Uiso   1.00
C017   C     0.85034   0.04579   0.15618   1.00000  Uiso   1.00
C018   C     0.95113   0.10012   0.15491   1.00000  Uiso   1.00
C019   C     0.95172   0.21150   0.15375   1.00000  Uiso   1.00
C020   C     0.85253   0.26723   0.15463   1.00000  Uiso   1.00
C021   C     0.05150   0.37807   0.15093   1.00000  Uiso   1.00
C022   C     0.14981   0.43408   0.15058   1.00000  Uiso   1.00
C023   C     0.14981   0.54540   0.15074   1.00000  Uiso   1.00
C024   C     0.05151   0.60141   0.15125   1.00000  Uiso   1.00
C025   C     0.24859   0.37851   0.15220   1.00000  Uiso   1.00
C026   C     0.34636   0.43364   0.15477   1.00000  Uiso   1.00
C027   C     0.34637   0.54582   0.15490   1.00000  Uiso   1.00
C028   C     0.24860   0.60096   0.15249   1.00000  Uiso   1.00
C029   C     0.75667   0.43366   0.15668   1.00000  Uiso   1.00
C030   C     0.75667   0.54581   0.15685   1.00000  Uiso   1.00
C031   C     0.85445   0.37857   0.15387   1.00000  Uiso   1.00
C032   C     0.95322   0.43409   0.15164   1.00000  Uiso   1.00
C033   C     0.95322   0.54539   0.15181   1.00000  Uiso   1.00
C034   C     0.85445   0.60090   0.15419   1.00000  Uiso   1.00
C035   C     0.05156   0.71292   0.15276   1.00000  Uiso   1.00
C036   C     0.15143   0.76799   0.15358   1.00000  Uiso   1.00
C037   C     0.05160   0.93412   0.15495   1.00000  Uiso   1.00
C038   C     0.25060   0.71231   0.15379   1.00000  Uiso   1.00
C039   C     0.35196   0.76484   0.15594   1.00000  Uiso   1.00
C040   C     0.35301   0.87755   0.15651   1.00000  Uiso   1.00
C041   C     0.25287   0.93369   0.15559   1.00000  Uiso   1.00
C042   C     0.44985   0.70431   0.15840   1.00000  Uiso   1.00
C043   C     0.55159   0.75923   0.15971   1.00000  Uiso   1.00
C044   C     0.55162   0.87396   0.15899   1.00000  Uiso   1.00
C045   C     0.45311   0.93287   0.15799   1.00000  Uiso   1.00
C046   C     0.65334   0.70421   0.15930   1.00000  Uiso   1.00
C047   C     0.75124   0.76479   0.15712   1.00000  Uiso   1.00
C048   C     0.75023   0.87751   0.15738   1.00000  Uiso   1.00
C049   C     0.65014   0.93287   0.15848   1.00000  Uiso   1.00
C050   C     0.85254   0.71223   0.15510   1.00000  Uiso   1.00
C051   C     0.95173   0.76797   0.15424   1.00000  Uiso   1.00
C052   C     0.85034   0.93368   0.15634   1.00000  Uiso   1.00
C053   C     0.15205   0.87937   0.15474   1.00000  Uiso   1.00
C054   C     0.95114   0.87935   0.15523   1.00000  Uiso   1.00
N001   N     0.44433   0.38420   0.15862   1.00000  Uiso   1.00
N002   N     0.44435   0.59523   0.15885   1.00000  Uiso   1.00
N003   N     0.65879   0.38421   0.15969   1.00000  Uiso   1.00
N004   N     0.65878   0.59523   0.16002   1.00000  Uiso   1.00
N005   N     0.55117   0.48893   0.26098   1.00000  Uiso   1.00
O001   O     0.62863   0.48900   0.29991   1.00000  Uiso   1.00
Fe001  Fe    0.55145   0.48965   0.17273   1.00000  Uiso   1.00
H001   H     0.47616   0.48816   0.28484   1.00000  Uiso   1.00
loop_
_geom_bond_atom_site_label_1
_geom_bond_atom_site_label_2
_geom_bond_distance
_geom_bond_site_symmetry_2
_ccdc_geom_bond_type
C001   C002    1.434   .     D
C001   C018    1.434   1_455 S
C001   C037    1.417   1_545 S
C002   C003    1.419   .     S
C002   C005    1.436   .     S
C003   C004    1.430   .     D
C003   C008    1.426   .     S
C004   C019    1.430   1_455 S
C004   C021    1.421   .     S
C005   C006    1.439   .     S
C005   C041    1.428   1_545 D
C006   C007    1.436   .     S
C006   C009    1.434   .     D
C007   C008    1.431   .     S
C007   C012    1.445   .     D
C008   C025    1.419   .     D
C009   C010    1.440   .     S
C009   C045    1.449   1_545 S
C010   C011    1.462   .     D
C010   C013    1.440   .     S
C011   C012    1.449   .     S
C011   C016    1.450   .     S
C012   N001    1.391   .     S
C013   C014    1.434   .     D
C013   C049    1.449   1_545 S
C014   C015    1.436   .     S
C014   C017    1.439   .     S
C015   C016    1.445   .     S
C015   C020    1.431   .     D
C016   N003    1.390   .     D
C017   C018    1.436   .     S
C017   C052    1.428   1_545 D
C018   C001    1.434   1_655 S
C018   C019    1.419   .     D
C019   C004    1.430   1_655 S
C019   C020    1.427   .     S
C020   C031    1.418   .     S
C021   C022    1.419   .     D
C021   C032    1.419   1_455 S
C022   C023    1.418   .     S
C022   C025    1.422   .     S
C023   C024    1.419   .     D
C023   C028    1.422   .     S
C024   C033    1.419   1_455 S
C024   C035    1.421   .     S
C025   C026    1.408   .     S
C026   C027    1.429   .     S
C026   N001    1.377   .     D
C027   C028    1.408   .     S
C027   N002    1.377   .     D
C028   C038    1.419   .     D
C029   C030    1.428   .     S
C029   C031    1.408   .     D
C029   N003    1.375   .     S
C030   C034    1.408   .     S
C030   N004    1.375   .     D
C031   C032    1.421   .     S
C032   C021    1.419   1_655 S
C032   C033    1.418   .     D
C033   C024    1.419   1_655 S
C033   C034    1.421   .     S
C034   C050    1.418   .     D
C035   C036    1.430   .     S
C035   C051    1.430   1_455 D
C036   C038    1.426   .     S
C036   C053    1.419   .     D
C037   C001    1.417   1_565 S
C037   C053    1.434   .     S
C037   C054    1.434   1_455 D
C038   C039    1.431   .     S
C039   C040    1.436   .     S
C039   C042    1.445   .     D
C040   C041    1.439   .     S
C040   C045    1.434   .     D
C041   C005    1.428   1_565 D
C041   C053    1.436   .     S
C042   C043    1.449   .     S
C042   N002    1.391   .     S
C043   C044    1.462   .     S
C043   C046    1.450   .     D
C044   C045    1.440   .     S
C044   C049    1.440   .     D
C045   C009    1.449   1_565 S
C046   C047    1.445   .     S
C046   N004    1.390   .     S
C047   C048    1.436   .     D
C047   C050    1.431   .     S
C048   C049    1.434   .     S
C048   C052    1.439   .     S
C049   C013    1.449   1_565 S
C050   C051    1.427   .     S
C051   C035    1.430   1_655 D
C051   C054    1.419   .     S
C052   C017    1.428   1_565 D
C052   C054    1.436   .     S
C054   C037    1.434   1_655 D
N001   Fe001   1.915   .     S
N002   Fe001   1.916   .     S
N003   Fe001   1.914   .     S
N004   Fe001   1.915   .     S
N005   O001    1.241   .     D
N005   Fe001   1.764   .     S
N005   H001    1.050   .     S
