data_e+1.0-opt
_audit_creation_date              2024-12-22
_audit_creation_method            'Materials Studio'
_symmetry_space_group_name_H-M    'P1'
_symmetry_Int_Tables_number       1
_symmetry_cell_setting            triclinic
loop_
_symmetry_equiv_pos_as_xyz
  x,y,z
_cell_length_a                    12.4751
_cell_length_b                    12.7382
_cell_length_c                    19.9905
_cell_angle_alpha                 90.0000
_cell_angle_beta                  90.0000
_cell_angle_gamma                 90.0000
loop_
_atom_site_label
_atom_site_type_symbol
_atom_site_fract_x
_atom_site_fract_y
_atom_site_fract_z
_atom_site_U_iso_or_equiv
_atom_site_adp_type
_atom_site_occupancy
C001   C     0.05167   0.04537   0.15475   1.00000  Uiso   1.00
C002   C     0.15206   0.10010   0.15439   1.00000  Uiso   1.00
C003   C     0.15143   0.21145   0.15307   1.00000  Uiso   1.00
C004   C     0.05164   0.26649   0.15225   1.00000  Uiso   1.00
C005   C     0.25292   0.04575   0.15544   1.00000  Uiso   1.00
C006   C     0.35304   0.10181   0.15629   1.00000  Uiso   1.00
C007   C     0.35192   0.21457   0.15549   1.00000  Uiso   1.00
C008   C     0.25071   0.26717   0.15328   1.00000  Uiso   1.00
C009   C     0.45307   0.04661   0.15796   1.00000  Uiso   1.00
C010   C     0.55169   0.10562   0.15888   1.00000  Uiso   1.00
C011   C     0.55168   0.22012   0.15950   1.00000  Uiso   1.00
C012   C     0.44983   0.27510   0.15796   1.00000  Uiso   1.00
C013   C     0.65032   0.04661   0.15846   1.00000  Uiso   1.00
C014   C     0.75034   0.10186   0.15714   1.00000  Uiso   1.00
C015   C     0.75142   0.21465   0.15664   1.00000  Uiso   1.00
C016   C     0.65353   0.27521   0.15886   1.00000  Uiso   1.00
C017   C     0.85043   0.04576   0.15618   1.00000  Uiso   1.00
C018   C     0.95127   0.10012   0.15488   1.00000  Uiso   1.00
C019   C     0.95187   0.21147   0.15373   1.00000  Uiso   1.00
C020   C     0.85261   0.26725   0.15456   1.00000  Uiso   1.00
C021   C     0.05161   0.37821   0.15092   1.00000  Uiso   1.00
C022   C     0.14988   0.43412   0.15058   1.00000  Uiso   1.00
C023   C     0.14988   0.54537   0.15076   1.00000  Uiso   1.00
C024   C     0.05162   0.60128   0.15127   1.00000  Uiso   1.00
C025   C     0.24874   0.37844   0.15209   1.00000  Uiso   1.00
C026   C     0.34663   0.43342   0.15457   1.00000  Uiso   1.00
C027   C     0.34664   0.54605   0.15471   1.00000  Uiso   1.00
C028   C     0.24875   0.60104   0.15240   1.00000  Uiso   1.00
C029   C     0.75673   0.43347   0.15641   1.00000  Uiso   1.00
C030   C     0.75673   0.54602   0.15660   1.00000  Uiso   1.00
C031   C     0.85453   0.37849   0.15371   1.00000  Uiso   1.00
C032   C     0.95338   0.43413   0.15162   1.00000  Uiso   1.00
C033   C     0.95338   0.54536   0.15180   1.00000  Uiso   1.00
C034   C     0.85454   0.60099   0.15406   1.00000  Uiso   1.00
C035   C     0.05164   0.71299   0.15279   1.00000  Uiso   1.00
C036   C     0.15144   0.76803   0.15359   1.00000  Uiso   1.00
C037   C     0.05167   0.93411   0.15493   1.00000  Uiso   1.00
C038   C     0.25071   0.71230   0.15375   1.00000  Uiso   1.00
C039   C     0.35193   0.76489   0.15589   1.00000  Uiso   1.00
C040   C     0.35304   0.87766   0.15655   1.00000  Uiso   1.00
C041   C     0.25292   0.93373   0.15560   1.00000  Uiso   1.00
C042   C     0.44985   0.70436   0.15832   1.00000  Uiso   1.00
C043   C     0.55168   0.75936   0.15986   1.00000  Uiso   1.00
C044   C     0.55169   0.87385   0.15911   1.00000  Uiso   1.00
C045   C     0.45307   0.93287   0.15808   1.00000  Uiso   1.00
C046   C     0.65353   0.70425   0.15929   1.00000  Uiso   1.00
C047   C     0.75143   0.76483   0.15710   1.00000  Uiso   1.00
C048   C     0.75034   0.87762   0.15742   1.00000  Uiso   1.00
C049   C     0.65032   0.93286   0.15859   1.00000  Uiso   1.00
C050   C     0.85262   0.71224   0.15508   1.00000  Uiso   1.00
C051   C     0.95188   0.76801   0.15427   1.00000  Uiso   1.00
C052   C     0.85044   0.93373   0.15635   1.00000  Uiso   1.00
C053   C     0.15206   0.87938   0.15473   1.00000  Uiso   1.00
C054   C     0.95128   0.87936   0.15523   1.00000  Uiso   1.00
N001   N     0.44418   0.38400   0.15859   1.00000  Uiso   1.00
N002   N     0.44421   0.59545   0.15883   1.00000  Uiso   1.00
N003   N     0.65925   0.38406   0.15984   1.00000  Uiso   1.00
N004   N     0.65925   0.59540   0.16022   1.00000  Uiso   1.00
N005   N     0.55013   0.48885   0.26066   1.00000  Uiso   1.00
O001   O     0.62568   0.48896   0.30251   1.00000  Uiso   1.00
Fe001  Fe    0.55180   0.48964   0.17305   1.00000  Uiso   1.00
H001   H     0.47414   0.48791   0.28313   1.00000  Uiso   1.00
loop_
_geom_bond_atom_site_label_1
_geom_bond_atom_site_label_2
_geom_bond_distance
_geom_bond_site_symmetry_2
_ccdc_geom_bond_type
C001   C002    1.433   .     D
C001   C018    1.434   1_455 S
C001   C037    1.417   1_545 S
C002   C003    1.419   .     S
C002   C005    1.436   .     S
C003   C004    1.429   .     D
C003   C008    1.427   .     S
C004   C019    1.429   1_455 S
C004   C021    1.423   .     S
C005   C006    1.439   .     S
C005   C041    1.427   1_545 D
C006   C007    1.437   .     S
C006   C009    1.433   .     D
C007   C008    1.430   .     S
C007   C012    1.445   .     D
C008   C025    1.418   .     D
C009   C010    1.442   .     S
C009   C045    1.449   1_545 S
C010   C011    1.458   .     D
C010   C013    1.442   .     S
C011   C012    1.451   .     S
C011   C016    1.452   .     S
C012   N001    1.389   .     S
C013   C014    1.433   .     D
C013   C049    1.449   1_545 S
C014   C015    1.437   .     S
C014   C017    1.439   .     S
C015   C016    1.445   .     S
C015   C020    1.430   .     D
C016   N003    1.388   .     D
C017   C018    1.436   .     S
C017   C052    1.427   1_545 D
C018   C001    1.434   1_655 S
C018   C019    1.419   .     D
C019   C004    1.429   1_655 S
C019   C020    1.428   .     S
C020   C031    1.417   .     S
C021   C022    1.418   .     D
C021   C032    1.418   1_455 S
C022   C023    1.417   .     S
C022   C025    1.423   .     S
C023   C024    1.418   .     D
C023   C028    1.423   .     S
C024   C033    1.418   1_455 S
C024   C035    1.423   .     S
C025   C026    1.409   .     S
C026   C027    1.435   .     S
C026   N001    1.373   .     D
C027   C028    1.408   .     S
C027   N002    1.373   .     D
C028   C038    1.418   .     D
C029   C030    1.434   .     S
C029   C031    1.408   .     D
C029   N003    1.371   .     S
C030   C034    1.408   .     S
C030   N004    1.371   .     D
C031   C032    1.423   .     S
C032   C021    1.418   1_655 S
C032   C033    1.417   .     D
C033   C024    1.418   1_655 S
C033   C034    1.423   .     S
C034   C050    1.417   .     D
C035   C036    1.429   .     S
C035   C051    1.429   1_455 D
C036   C038    1.427   .     S
C036   C053    1.419   .     D
C037   C001    1.417   1_565 S
C037   C053    1.433   .     S
C037   C054    1.433   1_455 D
C038   C039    1.430   .     S
C039   C040    1.437   .     S
C039   C042    1.445   .     D
C040   C041    1.439   .     S
C040   C045    1.433   .     D
C041   C005    1.427   1_565 D
C041   C053    1.436   .     S
C042   C043    1.451   .     S
C042   N002    1.389   .     S
C043   C044    1.459   .     S
C043   C046    1.452   .     D
C044   C045    1.442   .     S
C044   C049    1.442   .     D
C045   C009    1.449   1_565 S
C046   C047    1.445   .     S
C046   N004    1.389   .     S
C047   C048    1.437   .     D
C047   C050    1.430   .     S
C048   C049    1.433   .     S
C048   C052    1.439   .     S
C049   C013    1.449   1_565 S
C050   C051    1.428   .     S
C051   C035    1.429   1_655 D
C051   C054    1.419   .     S
C052   C017    1.427   1_565 D
C052   C054    1.436   .     S
C054   C037    1.433   1_655 D
N001   Fe001   1.923   .     S
N002   Fe001   1.923   .     S
N003   Fe001   1.917   .     S
N004   Fe001   1.918   .     S
N005   O001    1.260   .     D
N005   Fe001   1.751   .     S
N005   H001    1.049   .     S
