data_e+0.6-opt
_audit_creation_date              2024-12-22
_audit_creation_method            'Materials Studio'
_symmetry_space_group_name_H-M    'P1'
_symmetry_Int_Tables_number       1
_symmetry_cell_setting            triclinic
loop_
_symmetry_equiv_pos_as_xyz
  x,y,z
_cell_length_a                    12.4699
_cell_length_b                    12.7329
_cell_length_c                    19.9822
_cell_angle_alpha                 90.0000
_cell_angle_beta                  90.0000
_cell_angle_gamma                 90.0000
loop_
_atom_site_label
_atom_site_type_symbol
_atom_site_fract_x
_atom_site_fract_y
_atom_site_fract_z
_atom_site_U_iso_or_equiv
_atom_site_adp_type
_atom_site_occupancy
C001   C     0.05208   0.04541   0.15557   1.00000  Uiso   1.00
C002   C     0.15256   0.10038   0.15499   1.00000  Uiso   1.00
C003   C     0.15199   0.21166   0.15322   1.00000  Uiso   1.00
C004   C     0.05210   0.26692   0.15217   1.00000  Uiso   1.00
C005   C     0.25331   0.04588   0.15572   1.00000  Uiso   1.00
C006   C     0.35341   0.10212   0.15567   1.00000  Uiso   1.00
C007   C     0.35241   0.21453   0.15450   1.00000  Uiso   1.00
C008   C     0.25128   0.26744   0.15264   1.00000  Uiso   1.00
C009   C     0.45351   0.04652   0.15693   1.00000  Uiso   1.00
C010   C     0.55214   0.10557   0.15747   1.00000  Uiso   1.00
C011   C     0.55215   0.22005   0.15789   1.00000  Uiso   1.00
C012   C     0.45049   0.27528   0.15632   1.00000  Uiso   1.00
C013   C     0.65073   0.04661   0.15706   1.00000  Uiso   1.00
C014   C     0.75071   0.10227   0.15581   1.00000  Uiso   1.00
C015   C     0.75165   0.21482   0.15499   1.00000  Uiso   1.00
C016   C     0.65357   0.27547   0.15712   1.00000  Uiso   1.00
C017   C     0.85083   0.04589   0.15572   1.00000  Uiso   1.00
C018   C     0.95163   0.10035   0.15503   1.00000  Uiso   1.00
C019   C     0.95221   0.21170   0.15341   1.00000  Uiso   1.00
C020   C     0.85297   0.26751   0.15315   1.00000  Uiso   1.00
C021   C     0.05214   0.37821   0.15048   1.00000  Uiso   1.00
C022   C     0.15080   0.43422   0.15000   1.00000  Uiso   1.00
C023   C     0.15079   0.54548   0.15043   1.00000  Uiso   1.00
C024   C     0.05214   0.60149   0.15132   1.00000  Uiso   1.00
C025   C     0.24963   0.37867   0.15079   1.00000  Uiso   1.00
C026   C     0.34820   0.43375   0.15206   1.00000  Uiso   1.00
C027   C     0.34820   0.54596   0.15239   1.00000  Uiso   1.00
C028   C     0.24962   0.60103   0.15153   1.00000  Uiso   1.00
C029   C     0.75633   0.43391   0.15352   1.00000  Uiso   1.00
C030   C     0.75634   0.54579   0.15384   1.00000  Uiso   1.00
C031   C     0.85472   0.37862   0.15155   1.00000  Uiso   1.00
C032   C     0.95352   0.43420   0.15038   1.00000  Uiso   1.00
C033   C     0.95352   0.54551   0.15081   1.00000  Uiso   1.00
C034   C     0.85473   0.60108   0.15228   1.00000  Uiso   1.00
C035   C     0.05210   0.71276   0.15344   1.00000  Uiso   1.00
C036   C     0.15199   0.76802   0.15444   1.00000  Uiso   1.00
C037   C     0.05208   0.93430   0.15600   1.00000  Uiso   1.00
C038   C     0.25127   0.71225   0.15374   1.00000  Uiso   1.00
C039   C     0.35241   0.76516   0.15542   1.00000  Uiso   1.00
C040   C     0.35341   0.87757   0.15626   1.00000  Uiso   1.00
C041   C     0.25331   0.93382   0.15610   1.00000  Uiso   1.00
C042   C     0.45048   0.70440   0.15706   1.00000  Uiso   1.00
C043   C     0.55215   0.75963   0.15859   1.00000  Uiso   1.00
C044   C     0.55214   0.87412   0.15794   1.00000  Uiso   1.00
C045   C     0.45351   0.93317   0.15719   1.00000  Uiso   1.00
C046   C     0.65357   0.70420   0.15785   1.00000  Uiso   1.00
C047   C     0.75166   0.76487   0.15589   1.00000  Uiso   1.00
C048   C     0.75072   0.87742   0.15640   1.00000  Uiso   1.00
C049   C     0.65073   0.93308   0.15732   1.00000  Uiso   1.00
C050   C     0.85299   0.71218   0.15425   1.00000  Uiso   1.00
C051   C     0.95222   0.76799   0.15463   1.00000  Uiso   1.00
C052   C     0.85084   0.93381   0.15609   1.00000  Uiso   1.00
C053   C     0.15256   0.87932   0.15578   1.00000  Uiso   1.00
C054   C     0.95163   0.87935   0.15582   1.00000  Uiso   1.00
N001   N     0.44545   0.38367   0.15623   1.00000  Uiso   1.00
N002   N     0.44544   0.59601   0.15672   1.00000  Uiso   1.00
N003   N     0.65869   0.38445   0.15812   1.00000  Uiso   1.00
N004   N     0.65870   0.59521   0.15856   1.00000  Uiso   1.00
N005   N     0.55725   0.48875   0.26406   1.00000  Uiso   1.00
O001   O     0.58446   0.48704   0.32172   1.00000  Uiso   1.00
Fe001  Fe    0.55239   0.48965   0.18154   1.00000  Uiso   1.00
loop_
_geom_bond_atom_site_label_1
_geom_bond_atom_site_label_2
_geom_bond_distance
_geom_bond_site_symmetry_2
_ccdc_geom_bond_type
C001   C002    1.435   .     D
C001   C018    1.435   1_455 S
C001   C037    1.415   1_545 S
C002   C003    1.417   .     S
C002   C005    1.435   .     S
C003   C004    1.431   .     D
C003   C008    1.427   .     S
C004   C019    1.431   1_455 S
C004   C021    1.417   .     S
C005   C006    1.439   .     S
C005   C041    1.427   1_545 D
C006   C007    1.432   .     S
C006   C009    1.435   .     D
C007   C008    1.430   .     S
C007   C012    1.448   .     D
C008   C025    1.417   .     D
C009   C010    1.442   .     S
C009   C045    1.443   1_545 S
C010   C011    1.458   .     D
C010   C013    1.441   .     S
C011   C012    1.450   .     S
C011   C016    1.448   .     S
C012   N001    1.382   .     S
C013   C014    1.434   .     D
C013   C049    1.445   1_545 S
C014   C015    1.433   .     S
C014   C017    1.440   .     S
C015   C016    1.447   .     S
C015   C020    1.431   .     D
C016   N003    1.389   .     D
C017   C018    1.436   .     S
C017   C052    1.427   1_545 D
C018   C001    1.435   1_655 S
C018   C019    1.418   .     D
C019   C004    1.431   1_655 S
C019   C020    1.427   .     S
C020   C031    1.415   .     S
C021   C022    1.422   .     D
C021   C032    1.422   1_455 S
C022   C023    1.417   .     S
C022   C025    1.421   .     S
C023   C024    1.422   .     D
C023   C028    1.421   .     S
C024   C033    1.421   1_455 S
C024   C035    1.417   .     S
C025   C026    1.415   .     S
C026   C027    1.429   .     S
C026   N001    1.373   .     D
C027   C028    1.415   .     S
C027   N002    1.373   .     D
C028   C038    1.417   .     D
C029   C030    1.425   .     S
C029   C031    1.415   .     D
C029   N003    1.374   .     S
C030   C034    1.415   .     S
C030   N004    1.374   .     D
C031   C032    1.421   .     S
C032   C021    1.422   1_655 S
C032   C033    1.417   .     D
C033   C024    1.421   1_655 S
C033   C034    1.421   .     S
C034   C050    1.415   .     D
C035   C036    1.431   .     S
C035   C051    1.430   1_455 D
C036   C038    1.427   .     S
C036   C053    1.417   .     D
C037   C001    1.415   1_565 S
C037   C053    1.435   .     S
C037   C054    1.435   1_455 D
C038   C039    1.430   .     S
C039   C040    1.432   .     S
C039   C042    1.448   .     D
C040   C041    1.439   .     S
C040   C045    1.435   .     D
C041   C005    1.427   1_565 D
C041   C053    1.435   .     S
C042   C043    1.450   .     S
C042   N002    1.382   .     S
C043   C044    1.458   .     S
C043   C046    1.448   .     D
C044   C045    1.442   .     S
C044   C049    1.441   .     D
C045   C009    1.443   1_565 S
C046   C047    1.447   .     S
C046   N004    1.389   .     S
C047   C048    1.433   .     D
C047   C050    1.431   .     S
C048   C049    1.434   .     S
C048   C052    1.440   .     S
C049   C013    1.445   1_565 S
C050   C051    1.427   .     S
C051   C035    1.430   1_655 D
C051   C054    1.418   .     S
C052   C017    1.427   1_565 D
C052   C054    1.436   .     S
C054   C037    1.435   1_655 D
N001   Fe001   1.963   .     S
N002   Fe001   1.964   .     S
N003   Fe001   1.942   .     S
N004   Fe001   1.943   .     S
N005   O001    1.201   .     D
N005   Fe001   1.650   .     S
