data_e-0.8-opt
_audit_creation_date              2024-12-22
_audit_creation_method            'Materials Studio'
_symmetry_space_group_name_H-M    'P1'
_symmetry_Int_Tables_number       1
_symmetry_cell_setting            triclinic
loop_
_symmetry_equiv_pos_as_xyz
  x,y,z
_cell_length_a                    12.4699
_cell_length_b                    12.7329
_cell_length_c                    19.9822
_cell_angle_alpha                 90.0000
_cell_angle_beta                  90.0000
_cell_angle_gamma                 90.0000
loop_
_atom_site_label
_atom_site_type_symbol
_atom_site_fract_x
_atom_site_fract_y
_atom_site_fract_z
_atom_site_U_iso_or_equiv
_atom_site_adp_type
_atom_site_occupancy
C001   C     0.05210   0.04538   0.15540   1.00000  Uiso   1.00
C002   C     0.15259   0.10035   0.15484   1.00000  Uiso   1.00
C003   C     0.15202   0.21164   0.15305   1.00000  Uiso   1.00
C004   C     0.05212   0.26691   0.15194   1.00000  Uiso   1.00
C005   C     0.25333   0.04589   0.15558   1.00000  Uiso   1.00
C006   C     0.35344   0.10215   0.15567   1.00000  Uiso   1.00
C007   C     0.35245   0.21457   0.15473   1.00000  Uiso   1.00
C008   C     0.25126   0.26741   0.15270   1.00000  Uiso   1.00
C009   C     0.45353   0.04653   0.15693   1.00000  Uiso   1.00
C010   C     0.55213   0.10546   0.15750   1.00000  Uiso   1.00
C011   C     0.55214   0.22009   0.15807   1.00000  Uiso   1.00
C012   C     0.45053   0.27528   0.15696   1.00000  Uiso   1.00
C013   C     0.65071   0.04659   0.15703   1.00000  Uiso   1.00
C014   C     0.75075   0.10222   0.15586   1.00000  Uiso   1.00
C015   C     0.75174   0.21467   0.15513   1.00000  Uiso   1.00
C016   C     0.65365   0.27530   0.15731   1.00000  Uiso   1.00
C017   C     0.85089   0.04589   0.15568   1.00000  Uiso   1.00
C018   C     0.95165   0.10032   0.15493   1.00000  Uiso   1.00
C019   C     0.95224   0.21166   0.15328   1.00000  Uiso   1.00
C020   C     0.85304   0.26744   0.15320   1.00000  Uiso   1.00
C021   C     0.05217   0.37814   0.15021   1.00000  Uiso   1.00
C022   C     0.15080   0.43421   0.14978   1.00000  Uiso   1.00
C023   C     0.15079   0.54550   0.15019   1.00000  Uiso   1.00
C024   C     0.05217   0.60156   0.15100   1.00000  Uiso   1.00
C025   C     0.24958   0.37864   0.15096   1.00000  Uiso   1.00
C026   C     0.34803   0.43382   0.15289   1.00000  Uiso   1.00
C027   C     0.34803   0.54588   0.15321   1.00000  Uiso   1.00
C028   C     0.24956   0.60106   0.15166   1.00000  Uiso   1.00
C029   C     0.75646   0.43389   0.15364   1.00000  Uiso   1.00
C030   C     0.75646   0.54581   0.15396   1.00000  Uiso   1.00
C031   C     0.85483   0.37860   0.15168   1.00000  Uiso   1.00
C032   C     0.95357   0.43419   0.15026   1.00000  Uiso   1.00
C033   C     0.95358   0.54552   0.15067   1.00000  Uiso   1.00
C034   C     0.85484   0.60110   0.15237   1.00000  Uiso   1.00
C035   C     0.05213   0.71277   0.15315   1.00000  Uiso   1.00
C036   C     0.15202   0.76804   0.15422   1.00000  Uiso   1.00
C037   C     0.05210   0.93432   0.15582   1.00000  Uiso   1.00
C038   C     0.25125   0.71227   0.15376   1.00000  Uiso   1.00
C039   C     0.35245   0.76511   0.15560   1.00000  Uiso   1.00
C040   C     0.35344   0.87753   0.15623   1.00000  Uiso   1.00
C041   C     0.25333   0.93380   0.15594   1.00000  Uiso   1.00
C042   C     0.45053   0.70439   0.15768   1.00000  Uiso   1.00
C043   C     0.55214   0.75958   0.15875   1.00000  Uiso   1.00
C044   C     0.55213   0.87422   0.15795   1.00000  Uiso   1.00
C045   C     0.45353   0.93315   0.15718   1.00000  Uiso   1.00
C046   C     0.65365   0.70437   0.15802   1.00000  Uiso   1.00
C047   C     0.75175   0.76501   0.15599   1.00000  Uiso   1.00
C048   C     0.75076   0.87746   0.15641   1.00000  Uiso   1.00
C049   C     0.65071   0.93309   0.15728   1.00000  Uiso   1.00
C050   C     0.85305   0.71224   0.15425   1.00000  Uiso   1.00
C051   C     0.95225   0.76802   0.15444   1.00000  Uiso   1.00
C052   C     0.85089   0.93380   0.15603   1.00000  Uiso   1.00
C053   C     0.15259   0.87935   0.15560   1.00000  Uiso   1.00
C054   C     0.95165   0.87937   0.15568   1.00000  Uiso   1.00
N001   N     0.44550   0.38394   0.15721   1.00000  Uiso   1.00
N002   N     0.44550   0.59572   0.15770   1.00000  Uiso   1.00
N003   N     0.65880   0.38425   0.15767   1.00000  Uiso   1.00
N004   N     0.65880   0.59541   0.15815   1.00000  Uiso   1.00
N005   N     0.56021   0.48868   0.26338   1.00000  Uiso   1.00
O001   O     0.57956   0.48726   0.32088   1.00000  Uiso   1.00
Fe001  Fe    0.55262   0.48966   0.18066   1.00000  Uiso   1.00
loop_
_geom_bond_atom_site_label_1
_geom_bond_atom_site_label_2
_geom_bond_distance
_geom_bond_site_symmetry_2
_ccdc_geom_bond_type
C001   C002    1.435   .     D
C001   C018    1.435   1_455 S
C001   C037    1.414   1_545 S
C002   C003    1.418   .     S
C002   C005    1.435   .     S
C003   C004    1.431   .     D
C003   C008    1.427   .     S
C004   C019    1.431   1_455 S
C004   C021    1.417   .     S
C005   C006    1.439   .     S
C005   C041    1.427   1_545 D
C006   C007    1.432   .     S
C006   C009    1.435   .     D
C007   C008    1.431   .     S
C007   C012    1.448   .     D
C008   C025    1.417   .     D
C009   C010    1.441   .     S
C009   C045    1.444   1_545 S
C010   C011    1.460   .     D
C010   C013    1.440   .     S
C011   C012    1.449   .     S
C011   C016    1.448   .     S
C012   N001    1.385   .     S
C013   C014    1.435   .     D
C013   C049    1.445   1_545 S
C014   C015    1.432   .     S
C014   C017    1.440   .     S
C015   C016    1.447   .     S
C015   C020    1.431   .     D
C016   N003    1.389   .     D
C017   C018    1.435   .     S
C017   C052    1.427   1_545 D
C018   C001    1.435   1_655 S
C018   C019    1.418   .     D
C019   C004    1.431   1_655 S
C019   C020    1.427   .     S
C020   C031    1.416   .     S
C021   C022    1.422   .     D
C021   C032    1.422   1_455 S
C022   C023    1.417   .     S
C022   C025    1.421   .     S
C023   C024    1.422   .     D
C023   C028    1.421   .     S
C024   C033    1.421   1_455 S
C024   C035    1.417   .     S
C025   C026    1.415   .     S
C026   C027    1.427   .     S
C026   N001    1.374   .     D
C027   C028    1.415   .     S
C027   N002    1.374   .     D
C028   C038    1.417   .     D
C029   C030    1.425   .     S
C029   C031    1.415   .     D
C029   N003    1.374   .     S
C030   C034    1.415   .     S
C030   N004    1.374   .     D
C031   C032    1.421   .     S
C032   C021    1.422   1_655 S
C032   C033    1.418   .     D
C033   C024    1.421   1_655 S
C033   C034    1.421   .     S
C034   C050    1.416   .     D
C035   C036    1.431   .     S
C035   C051    1.431   1_455 D
C036   C038    1.427   .     S
C036   C053    1.417   .     D
C037   C001    1.414   1_565 S
C037   C053    1.435   .     S
C037   C054    1.435   1_455 D
C038   C039    1.431   .     S
C039   C040    1.431   .     S
C039   C042    1.448   .     D
C040   C041    1.439   .     S
C040   C045    1.435   .     D
C041   C005    1.427   1_565 D
C041   C053    1.435   .     S
C042   C043    1.449   .     S
C042   N002    1.385   .     S
C043   C044    1.460   .     S
C043   C046    1.448   .     D
C044   C045    1.441   .     S
C044   C049    1.440   .     D
C045   C009    1.444   1_565 S
C046   C047    1.447   .     S
C046   N004    1.389   .     S
C047   C048    1.432   .     D
C047   C050    1.431   .     S
C048   C049    1.435   .     S
C048   C052    1.440   .     S
C049   C013    1.445   1_565 S
C050   C051    1.426   .     S
C051   C035    1.431   1_655 D
C051   C054    1.418   .     S
C052   C017    1.427   1_565 D
C052   C054    1.435   .     S
C054   C037    1.435   1_655 D
N001   Fe001   1.953   .     S
N002   Fe001   1.954   .     S
N003   Fe001   1.940   .     S
N004   Fe001   1.941   .     S
N005   O001    1.174   .     D
N005   Fe001   1.656   .     S
