data_e+0.0-opt
_audit_creation_date              2024-12-22
_audit_creation_method            'Materials Studio'
_symmetry_space_group_name_H-M    'P1'
_symmetry_Int_Tables_number       1
_symmetry_cell_setting            triclinic
loop_
_symmetry_equiv_pos_as_xyz
  x,y,z
_cell_length_a                    12.4699
_cell_length_b                    12.7329
_cell_length_c                    19.9822
_cell_angle_alpha                 90.0000
_cell_angle_beta                  90.0000
_cell_angle_gamma                 90.0000
loop_
_atom_site_label
_atom_site_type_symbol
_atom_site_fract_x
_atom_site_fract_y
_atom_site_fract_z
_atom_site_U_iso_or_equiv
_atom_site_adp_type
_atom_site_occupancy
C001   C     0.05211   0.04538   0.15568   1.00000  Uiso   1.00
C002   C     0.15258   0.10039   0.15509   1.00000  Uiso   1.00
C003   C     0.15202   0.21167   0.15332   1.00000  Uiso   1.00
C004   C     0.05212   0.26696   0.15229   1.00000  Uiso   1.00
C005   C     0.25333   0.04585   0.15576   1.00000  Uiso   1.00
C006   C     0.35345   0.10218   0.15561   1.00000  Uiso   1.00
C007   C     0.35246   0.21450   0.15448   1.00000  Uiso   1.00
C008   C     0.25126   0.26748   0.15271   1.00000  Uiso   1.00
C009   C     0.45354   0.04651   0.15681   1.00000  Uiso   1.00
C010   C     0.55213   0.10555   0.15732   1.00000  Uiso   1.00
C011   C     0.55213   0.22001   0.15774   1.00000  Uiso   1.00
C012   C     0.45052   0.27529   0.15629   1.00000  Uiso   1.00
C013   C     0.65071   0.04652   0.15692   1.00000  Uiso   1.00
C014   C     0.75074   0.10227   0.15573   1.00000  Uiso   1.00
C015   C     0.75168   0.21472   0.15491   1.00000  Uiso   1.00
C016   C     0.65360   0.27548   0.15699   1.00000  Uiso   1.00
C017   C     0.85085   0.04588   0.15573   1.00000  Uiso   1.00
C018   C     0.95163   0.10040   0.15510   1.00000  Uiso   1.00
C019   C     0.95221   0.21166   0.15347   1.00000  Uiso   1.00
C020   C     0.85299   0.26751   0.15316   1.00000  Uiso   1.00
C021   C     0.05215   0.37815   0.15066   1.00000  Uiso   1.00
C022   C     0.15079   0.43423   0.15018   1.00000  Uiso   1.00
C023   C     0.15078   0.54548   0.15063   1.00000  Uiso   1.00
C024   C     0.05216   0.60155   0.15154   1.00000  Uiso   1.00
C025   C     0.24961   0.37865   0.15089   1.00000  Uiso   1.00
C026   C     0.34816   0.43384   0.15210   1.00000  Uiso   1.00
C027   C     0.34816   0.54587   0.15245   1.00000  Uiso   1.00
C028   C     0.24960   0.60106   0.15167   1.00000  Uiso   1.00
C029   C     0.75635   0.43396   0.15351   1.00000  Uiso   1.00
C030   C     0.75635   0.54575   0.15385   1.00000  Uiso   1.00
C031   C     0.85472   0.37863   0.15163   1.00000  Uiso   1.00
C032   C     0.95352   0.43424   0.15054   1.00000  Uiso   1.00
C033   C     0.95352   0.54547   0.15099   1.00000  Uiso   1.00
C034   C     0.85473   0.60106   0.15240   1.00000  Uiso   1.00
C035   C     0.05212   0.71272   0.15363   1.00000  Uiso   1.00
C036   C     0.15201   0.76802   0.15462   1.00000  Uiso   1.00
C037   C     0.05211   0.93433   0.15614   1.00000  Uiso   1.00
C038   C     0.25125   0.71220   0.15388   1.00000  Uiso   1.00
C039   C     0.35246   0.76519   0.15546   1.00000  Uiso   1.00
C040   C     0.35344   0.87751   0.15625   1.00000  Uiso   1.00
C041   C     0.25332   0.93385   0.15616   1.00000  Uiso   1.00
C042   C     0.45052   0.70439   0.15710   1.00000  Uiso   1.00
C043   C     0.55214   0.75967   0.15850   1.00000  Uiso   1.00
C044   C     0.55213   0.87413   0.15783   1.00000  Uiso   1.00
C045   C     0.45354   0.93318   0.15710   1.00000  Uiso   1.00
C046   C     0.65360   0.70419   0.15778   1.00000  Uiso   1.00
C047   C     0.75169   0.76496   0.15588   1.00000  Uiso   1.00
C048   C     0.75074   0.87741   0.15637   1.00000  Uiso   1.00
C049   C     0.65071   0.93316   0.15720   1.00000  Uiso   1.00
C050   C     0.85300   0.71218   0.15433   1.00000  Uiso   1.00
C051   C     0.95221   0.76802   0.15476   1.00000  Uiso   1.00
C052   C     0.85084   0.93381   0.15612   1.00000  Uiso   1.00
C053   C     0.15258   0.87931   0.15592   1.00000  Uiso   1.00
C054   C     0.95164   0.87930   0.15593   1.00000  Uiso   1.00
N001   N     0.44555   0.38374   0.15616   1.00000  Uiso   1.00
N002   N     0.44554   0.59594   0.15670   1.00000  Uiso   1.00
N003   N     0.65864   0.38425   0.15780   1.00000  Uiso   1.00
N004   N     0.65864   0.59541   0.15830   1.00000  Uiso   1.00
N005   N     0.55803   0.48870   0.26367   1.00000  Uiso   1.00
O001   O     0.58312   0.48707   0.32123   1.00000  Uiso   1.00
Fe001  Fe    0.55233   0.48965   0.18101   1.00000  Uiso   1.00
loop_
_geom_bond_atom_site_label_1
_geom_bond_atom_site_label_2
_geom_bond_distance
_geom_bond_site_symmetry_2
_ccdc_geom_bond_type
C001   C002    1.435   .     D
C001   C018    1.436   1_455 S
C001   C037    1.414   1_545 S
C002   C003    1.417   .     S
C002   C005    1.435   .     S
C003   C004    1.431   .     D
C003   C008    1.427   .     S
C004   C019    1.431   1_455 S
C004   C021    1.416   .     S
C005   C006    1.440   .     S
C005   C041    1.426   1_545 D
C006   C007    1.430   .     S
C006   C009    1.436   .     D
C007   C008    1.431   .     S
C007   C012    1.448   .     D
C008   C025    1.416   .     D
C009   C010    1.441   .     S
C009   C045    1.443   1_545 S
C010   C011    1.457   .     D
C010   C013    1.441   .     S
C011   C012    1.450   .     S
C011   C016    1.449   .     S
C012   N001    1.382   .     S
C013   C014    1.435   .     D
C013   C049    1.443   1_545 S
C014   C015    1.432   .     S
C014   C017    1.440   .     S
C015   C016    1.448   .     S
C015   C020    1.431   .     D
C016   N003    1.387   .     D
C017   C018    1.436   .     S
C017   C052    1.427   1_545 D
C018   C001    1.436   1_655 S
C018   C019    1.417   .     D
C019   C004    1.431   1_655 S
C019   C020    1.427   .     S
C020   C031    1.415   .     S
C021   C022    1.422   .     D
C021   C032    1.422   1_455 S
C022   C023    1.417   .     S
C022   C025    1.421   .     S
C023   C024    1.422   .     D
C023   C028    1.421   .     S
C024   C033    1.422   1_455 S
C024   C035    1.416   .     S
C025   C026    1.416   .     S
C026   C027    1.427   .     S
C026   N001    1.374   .     D
C027   C028    1.416   .     S
C027   N002    1.374   .     D
C028   C038    1.416   .     D
C029   C030    1.423   .     S
C029   C031    1.415   .     D
C029   N003    1.376   .     S
C030   C034    1.415   .     S
C030   N004    1.376   .     D
C031   C032    1.421   .     S
C032   C021    1.422   1_655 S
C032   C033    1.416   .     D
C033   C024    1.422   1_655 S
C033   C034    1.421   .     S
C034   C050    1.416   .     D
C035   C036    1.431   .     S
C035   C051    1.431   1_455 D
C036   C038    1.427   .     S
C036   C053    1.417   .     D
C037   C001    1.414   1_565 S
C037   C053    1.435   .     S
C037   C054    1.435   1_455 D
C038   C039    1.431   .     S
C039   C040    1.430   .     S
C039   C042    1.448   .     D
C040   C041    1.440   .     S
C040   C045    1.436   .     D
C041   C005    1.426   1_565 D
C041   C053    1.435   .     S
C042   C043    1.450   .     S
C042   N002    1.382   .     S
C043   C044    1.458   .     S
C043   C046    1.449   .     D
C044   C045    1.441   .     S
C044   C049    1.441   .     D
C045   C009    1.443   1_565 S
C046   C047    1.448   .     S
C046   N004    1.387   .     S
C047   C048    1.432   .     D
C047   C050    1.431   .     S
C048   C049    1.435   .     S
C048   C052    1.440   .     S
C049   C013    1.443   1_565 S
C050   C051    1.427   .     S
C051   C035    1.431   1_655 D
C051   C054    1.417   .     S
C052   C017    1.427   1_565 D
C052   C054    1.436   .     S
C054   C037    1.435   1_655 D
N001   Fe001   1.959   .     S
N002   Fe001   1.960   .     S
N003   Fe001   1.943   .     S
N004   Fe001   1.943   .     S
N005   O001    1.192   .     D
N005   Fe001   1.653   .     S
