data_e-0.6-opt
_audit_creation_date              2024-12-22
_audit_creation_method            'Materials Studio'
_symmetry_space_group_name_H-M    'P1'
_symmetry_Int_Tables_number       1
_symmetry_cell_setting            triclinic
loop_
_symmetry_equiv_pos_as_xyz
  x,y,z
_cell_length_a                    12.4699
_cell_length_b                    12.7329
_cell_length_c                    19.9822
_cell_angle_alpha                 90.0000
_cell_angle_beta                  90.0000
_cell_angle_gamma                 90.0000
loop_
_atom_site_label
_atom_site_type_symbol
_atom_site_fract_x
_atom_site_fract_y
_atom_site_fract_z
_atom_site_U_iso_or_equiv
_atom_site_adp_type
_atom_site_occupancy
C001   C     0.05209   0.04536   0.15552   1.00000  Uiso   1.00
C002   C     0.15258   0.10038   0.15496   1.00000  Uiso   1.00
C003   C     0.15202   0.21165   0.15316   1.00000  Uiso   1.00
C004   C     0.05211   0.26695   0.15208   1.00000  Uiso   1.00
C005   C     0.25332   0.04587   0.15566   1.00000  Uiso   1.00
C006   C     0.35343   0.10218   0.15564   1.00000  Uiso   1.00
C007   C     0.35245   0.21453   0.15460   1.00000  Uiso   1.00
C008   C     0.25124   0.26744   0.15268   1.00000  Uiso   1.00
C009   C     0.45353   0.04651   0.15689   1.00000  Uiso   1.00
C010   C     0.55212   0.10548   0.15744   1.00000  Uiso   1.00
C011   C     0.55212   0.22005   0.15796   1.00000  Uiso   1.00
C012   C     0.45052   0.27529   0.15670   1.00000  Uiso   1.00
C013   C     0.65069   0.04655   0.15700   1.00000  Uiso   1.00
C014   C     0.75074   0.10225   0.15581   1.00000  Uiso   1.00
C015   C     0.75170   0.21467   0.15506   1.00000  Uiso   1.00
C016   C     0.65362   0.27536   0.15724   1.00000  Uiso   1.00
C017   C     0.85086   0.04588   0.15570   1.00000  Uiso   1.00
C018   C     0.95162   0.10036   0.15500   1.00000  Uiso   1.00
C019   C     0.95220   0.21167   0.15335   1.00000  Uiso   1.00
C020   C     0.85301   0.26747   0.15319   1.00000  Uiso   1.00
C021   C     0.05214   0.37813   0.15039   1.00000  Uiso   1.00
C022   C     0.15078   0.43421   0.14992   1.00000  Uiso   1.00
C023   C     0.15078   0.54551   0.15034   1.00000  Uiso   1.00
C024   C     0.05214   0.60157   0.15122   1.00000  Uiso   1.00
C025   C     0.24958   0.37866   0.15089   1.00000  Uiso   1.00
C026   C     0.34807   0.43385   0.15252   1.00000  Uiso   1.00
C027   C     0.34807   0.54586   0.15284   1.00000  Uiso   1.00
C028   C     0.24956   0.60105   0.15161   1.00000  Uiso   1.00
C029   C     0.75640   0.43393   0.15367   1.00000  Uiso   1.00
C030   C     0.75640   0.54577   0.15399   1.00000  Uiso   1.00
C031   C     0.85477   0.37863   0.15168   1.00000  Uiso   1.00
C032   C     0.95352   0.43419   0.15038   1.00000  Uiso   1.00
C033   C     0.95353   0.54552   0.15080   1.00000  Uiso   1.00
C034   C     0.85478   0.60107   0.15241   1.00000  Uiso   1.00
C035   C     0.05211   0.71273   0.15334   1.00000  Uiso   1.00
C036   C     0.15201   0.76803   0.15438   1.00000  Uiso   1.00
C037   C     0.05210   0.93434   0.15595   1.00000  Uiso   1.00
C038   C     0.25123   0.71225   0.15377   1.00000  Uiso   1.00
C039   C     0.35245   0.76515   0.15551   1.00000  Uiso   1.00
C040   C     0.35342   0.87751   0.15623   1.00000  Uiso   1.00
C041   C     0.25332   0.93382   0.15603   1.00000  Uiso   1.00
C042   C     0.45052   0.70438   0.15744   1.00000  Uiso   1.00
C043   C     0.55212   0.75962   0.15866   1.00000  Uiso   1.00
C044   C     0.55212   0.87420   0.15791   1.00000  Uiso   1.00
C045   C     0.45353   0.93317   0.15715   1.00000  Uiso   1.00
C046   C     0.65362   0.70431   0.15798   1.00000  Uiso   1.00
C047   C     0.75170   0.76501   0.15596   1.00000  Uiso   1.00
C048   C     0.75074   0.87743   0.15640   1.00000  Uiso   1.00
C049   C     0.65069   0.93313   0.15726   1.00000  Uiso   1.00
C050   C     0.85302   0.71222   0.15428   1.00000  Uiso   1.00
C051   C     0.95221   0.76802   0.15457   1.00000  Uiso   1.00
C052   C     0.85086   0.93381   0.15607   1.00000  Uiso   1.00
C053   C     0.15258   0.87932   0.15574   1.00000  Uiso   1.00
C054   C     0.95162   0.87933   0.15578   1.00000  Uiso   1.00
N001   N     0.44555   0.38386   0.15678   1.00000  Uiso   1.00
N002   N     0.44555   0.59581   0.15729   1.00000  Uiso   1.00
N003   N     0.65868   0.38423   0.15779   1.00000  Uiso   1.00
N004   N     0.65869   0.59543   0.15828   1.00000  Uiso   1.00
N005   N     0.55968   0.48867   0.26350   1.00000  Uiso   1.00
O001   O     0.58145   0.48716   0.32089   1.00000  Uiso   1.00
Fe001  Fe    0.55246   0.48966   0.18072   1.00000  Uiso   1.00
loop_
_geom_bond_atom_site_label_1
_geom_bond_atom_site_label_2
_geom_bond_distance
_geom_bond_site_symmetry_2
_ccdc_geom_bond_type
C001   C002    1.436   .     D
C001   C018    1.435   1_455 S
C001   C037    1.414   1_545 S
C002   C003    1.417   .     S
C002   C005    1.435   .     S
C003   C004    1.431   .     D
C003   C008    1.427   .     S
C004   C019    1.431   1_455 S
C004   C021    1.416   .     S
C005   C006    1.440   .     S
C005   C041    1.427   1_545 D
C006   C007    1.431   .     S
C006   C009    1.436   .     D
C007   C008    1.431   .     S
C007   C012    1.448   .     D
C008   C025    1.417   .     D
C009   C010    1.441   .     S
C009   C045    1.443   1_545 S
C010   C011    1.459   .     D
C010   C013    1.440   .     S
C011   C012    1.449   .     S
C011   C016    1.448   .     S
C012   N001    1.384   .     S
C013   C014    1.435   .     D
C013   C049    1.444   1_545 S
C014   C015    1.432   .     S
C014   C017    1.440   .     S
C015   C016    1.447   .     S
C015   C020    1.432   .     D
C016   N003    1.388   .     D
C017   C018    1.435   .     S
C017   C052    1.427   1_545 D
C018   C001    1.435   1_655 S
C018   C019    1.418   .     D
C019   C004    1.431   1_655 S
C019   C020    1.426   .     S
C020   C031    1.416   .     S
C021   C022    1.422   .     D
C021   C032    1.422   1_455 S
C022   C023    1.417   .     S
C022   C025    1.421   .     S
C023   C024    1.422   .     D
C023   C028    1.421   .     S
C024   C033    1.422   1_455 S
C024   C035    1.416   .     S
C025   C026    1.415   .     S
C026   C027    1.426   .     S
C026   N001    1.375   .     D
C027   C028    1.415   .     S
C027   N002    1.375   .     D
C028   C038    1.417   .     D
C029   C030    1.424   .     S
C029   C031    1.415   .     D
C029   N003    1.376   .     S
C030   C034    1.415   .     S
C030   N004    1.376   .     D
C031   C032    1.421   .     S
C032   C021    1.422   1_655 S
C032   C033    1.417   .     D
C033   C024    1.422   1_655 S
C033   C034    1.420   .     S
C034   C050    1.416   .     D
C035   C036    1.431   .     S
C035   C051    1.431   1_455 D
C036   C038    1.427   .     S
C036   C053    1.417   .     D
C037   C001    1.414   1_565 S
C037   C053    1.436   .     S
C037   C054    1.435   1_455 D
C038   C039    1.431   .     S
C039   C040    1.431   .     S
C039   C042    1.448   .     D
C040   C041    1.440   .     S
C040   C045    1.436   .     D
C041   C005    1.427   1_565 D
C041   C053    1.435   .     S
C042   C043    1.449   .     S
C042   N002    1.384   .     S
C043   C044    1.459   .     S
C043   C046    1.448   .     D
C044   C045    1.441   .     S
C044   C049    1.440   .     D
C045   C009    1.443   1_565 S
C046   C047    1.447   .     S
C046   N004    1.388   .     S
C047   C048    1.432   .     D
C047   C050    1.432   .     S
C048   C049    1.435   .     S
C048   C052    1.440   .     S
C049   C013    1.444   1_565 S
C050   C051    1.426   .     S
C051   C035    1.431   1_655 D
C051   C054    1.418   .     S
C052   C017    1.427   1_565 D
C052   C054    1.435   .     S
C054   C037    1.435   1_655 D
N001   Fe001   1.955   .     S
N002   Fe001   1.955   .     S
N003   Fe001   1.941   .     S
N004   Fe001   1.942   .     S
N005   O001    1.179   .     D
N005   Fe001   1.656   .     S
