data_e+1.0-opt
_audit_creation_date              2024-12-22
_audit_creation_method            'Materials Studio'
_symmetry_space_group_name_H-M    'P1'
_symmetry_Int_Tables_number       1
_symmetry_cell_setting            triclinic
loop_
_symmetry_equiv_pos_as_xyz
  x,y,z
_cell_length_a                    12.4699
_cell_length_b                    12.7329
_cell_length_c                    19.9822
_cell_angle_alpha                 90.0000
_cell_angle_beta                  90.0000
_cell_angle_gamma                 90.0000
loop_
_atom_site_label
_atom_site_type_symbol
_atom_site_fract_x
_atom_site_fract_y
_atom_site_fract_z
_atom_site_U_iso_or_equiv
_atom_site_adp_type
_atom_site_occupancy
C001   C     0.05207   0.04547   0.15556   1.00000  Uiso   1.00
C002   C     0.15252   0.10034   0.15499   1.00000  Uiso   1.00
C003   C     0.15194   0.21162   0.15320   1.00000  Uiso   1.00
C004   C     0.05209   0.26677   0.15213   1.00000  Uiso   1.00
C005   C     0.25331   0.04588   0.15573   1.00000  Uiso   1.00
C006   C     0.35340   0.10198   0.15570   1.00000  Uiso   1.00
C007   C     0.35237   0.21465   0.15453   1.00000  Uiso   1.00
C008   C     0.25130   0.26737   0.15262   1.00000  Uiso   1.00
C009   C     0.45347   0.04660   0.15695   1.00000  Uiso   1.00
C010   C     0.55214   0.10562   0.15748   1.00000  Uiso   1.00
C011   C     0.55216   0.22011   0.15791   1.00000  Uiso   1.00
C012   C     0.45045   0.27525   0.15638   1.00000  Uiso   1.00
C013   C     0.65076   0.04674   0.15706   1.00000  Uiso   1.00
C014   C     0.75071   0.10216   0.15583   1.00000  Uiso   1.00
C015   C     0.75167   0.21492   0.15502   1.00000  Uiso   1.00
C016   C     0.65360   0.27538   0.15715   1.00000  Uiso   1.00
C017   C     0.85083   0.04588   0.15573   1.00000  Uiso   1.00
C018   C     0.95166   0.10028   0.15503   1.00000  Uiso   1.00
C019   C     0.95227   0.21168   0.15340   1.00000  Uiso   1.00
C020   C     0.85296   0.26747   0.15315   1.00000  Uiso   1.00
C021   C     0.05214   0.37832   0.15042   1.00000  Uiso   1.00
C022   C     0.15077   0.43420   0.14993   1.00000  Uiso   1.00
C023   C     0.15077   0.54551   0.15035   1.00000  Uiso   1.00
C024   C     0.05214   0.60138   0.15124   1.00000  Uiso   1.00
C025   C     0.24962   0.37867   0.15077   1.00000  Uiso   1.00
C026   C     0.34814   0.43357   0.15216   1.00000  Uiso   1.00
C027   C     0.34814   0.54613   0.15248   1.00000  Uiso   1.00
C028   C     0.24961   0.60104   0.15150   1.00000  Uiso   1.00
C029   C     0.75640   0.43374   0.15352   1.00000  Uiso   1.00
C030   C     0.75641   0.54596   0.15383   1.00000  Uiso   1.00
C031   C     0.85476   0.37859   0.15153   1.00000  Uiso   1.00
C032   C     0.95357   0.43414   0.15033   1.00000  Uiso   1.00
C033   C     0.95357   0.54556   0.15076   1.00000  Uiso   1.00
C034   C     0.85478   0.60111   0.15225   1.00000  Uiso   1.00
C035   C     0.05209   0.71291   0.15339   1.00000  Uiso   1.00
C036   C     0.15193   0.76807   0.15442   1.00000  Uiso   1.00
C037   C     0.05207   0.93424   0.15599   1.00000  Uiso   1.00
C038   C     0.25129   0.71232   0.15372   1.00000  Uiso   1.00
C039   C     0.35237   0.76504   0.15544   1.00000  Uiso   1.00
C040   C     0.35340   0.87771   0.15629   1.00000  Uiso   1.00
C041   C     0.25331   0.93382   0.15610   1.00000  Uiso   1.00
C042   C     0.45045   0.70443   0.15712   1.00000  Uiso   1.00
C043   C     0.55216   0.75957   0.15860   1.00000  Uiso   1.00
C044   C     0.55214   0.87407   0.15794   1.00000  Uiso   1.00
C045   C     0.45347   0.93309   0.15721   1.00000  Uiso   1.00
C046   C     0.65360   0.70429   0.15788   1.00000  Uiso   1.00
C047   C     0.75168   0.76476   0.15592   1.00000  Uiso   1.00
C048   C     0.75071   0.87753   0.15642   1.00000  Uiso   1.00
C049   C     0.65076   0.93295   0.15732   1.00000  Uiso   1.00
C050   C     0.85297   0.71221   0.15424   1.00000  Uiso   1.00
C051   C     0.95228   0.76800   0.15462   1.00000  Uiso   1.00
C052   C     0.85083   0.93382   0.15610   1.00000  Uiso   1.00
C053   C     0.15252   0.87936   0.15577   1.00000  Uiso   1.00
C054   C     0.95167   0.87942   0.15581   1.00000  Uiso   1.00
N001   N     0.44526   0.38376   0.15641   1.00000  Uiso   1.00
N002   N     0.44525   0.59592   0.15690   1.00000  Uiso   1.00
N003   N     0.65887   0.38464   0.15814   1.00000  Uiso   1.00
N004   N     0.65887   0.59503   0.15858   1.00000  Uiso   1.00
N005   N     0.55757   0.48874   0.26391   1.00000  Uiso   1.00
O001   O     0.58404   0.48707   0.32159   1.00000  Uiso   1.00
Fe001  Fe    0.55248   0.48965   0.18146   1.00000  Uiso   1.00
loop_
_geom_bond_atom_site_label_1
_geom_bond_atom_site_label_2
_geom_bond_distance
_geom_bond_site_symmetry_2
_ccdc_geom_bond_type
C001   C002    1.434   .     D
C001   C018    1.433   1_455 S
C001   C037    1.416   1_545 S
C002   C003    1.417   .     S
C002   C005    1.435   .     S
C003   C004    1.430   .     D
C003   C008    1.428   .     S
C004   C019    1.429   1_455 S
C004   C021    1.421   .     S
C005   C006    1.438   .     S
C005   C041    1.427   1_545 D
C006   C007    1.435   .     S
C006   C009    1.434   .     D
C007   C008    1.428   .     S
C007   C012    1.447   .     D
C008   C025    1.418   .     D
C009   C010    1.442   .     S
C009   C045    1.445   1_545 S
C010   C011    1.458   .     D
C010   C013    1.440   .     S
C011   C012    1.450   .     S
C011   C016    1.448   .     S
C012   N001    1.383   .     S
C013   C014    1.432   .     D
C013   C049    1.449   1_545 S
C014   C015    1.436   .     S
C014   C017    1.440   .     S
C015   C016    1.446   .     S
C015   C020    1.430   .     D
C016   N003    1.393   .     D
C017   C018    1.436   .     S
C017   C052    1.427   1_545 D
C018   C001    1.433   1_655 S
C018   C019    1.419   .     D
C019   C004    1.429   1_655 S
C019   C020    1.428   .     S
C020   C031    1.415   .     S
C021   C022    1.421   .     D
C021   C032    1.420   1_455 S
C022   C023    1.417   .     S
C022   C025    1.421   .     S
C023   C024    1.421   .     D
C023   C028    1.421   .     S
C024   C033    1.420   1_455 S
C024   C035    1.421   .     S
C025   C026    1.414   .     S
C026   C027    1.433   .     S
C026   N001    1.370   .     D
C027   C028    1.414   .     S
C027   N002    1.370   .     D
C028   C038    1.418   .     D
C029   C030    1.429   .     S
C029   C031    1.414   .     D
C029   N003    1.371   .     S
C030   C034    1.414   .     S
C030   N004    1.371   .     D
C031   C032    1.421   .     S
C032   C021    1.420   1_655 S
C032   C033    1.419   .     D
C033   C024    1.420   1_655 S
C033   C034    1.421   .     S
C034   C050    1.415   .     D
C035   C036    1.430   .     S
C035   C051    1.429   1_455 D
C036   C038    1.428   .     S
C036   C053    1.417   .     D
C037   C001    1.416   1_565 S
C037   C053    1.434   .     S
C037   C054    1.433   1_455 D
C038   C039    1.428   .     S
C039   C040    1.435   .     S
C039   C042    1.447   .     D
C040   C041    1.438   .     S
C040   C045    1.433   .     D
C041   C005    1.427   1_565 D
C041   C053    1.435   .     S
C042   C043    1.450   .     S
C042   N002    1.383   .     S
C043   C044    1.458   .     S
C043   C046    1.448   .     D
C044   C045    1.442   .     S
C044   C049    1.440   .     D
C045   C009    1.445   1_565 S
C046   C047    1.446   .     S
C046   N004    1.393   .     S
C047   C048    1.436   .     D
C047   C050    1.430   .     S
C048   C049    1.432   .     S
C048   C052    1.440   .     S
C049   C013    1.449   1_565 S
C050   C051    1.428   .     S
C051   C035    1.429   1_655 D
C051   C054    1.419   .     S
C052   C017    1.427   1_565 D
C052   C054    1.436   .     S
C054   C037    1.433   1_655 D
N001   Fe001   1.964   .     S
N002   Fe001   1.965   .     S
N003   Fe001   1.940   .     S
N004   Fe001   1.941   .     S
N005   O001    1.199   .     D
N005   Fe001   1.649   .     S
