data_e+0.8-opt
_audit_creation_date              2024-12-22
_audit_creation_method            'Materials Studio'
_symmetry_space_group_name_H-M    'P1'
_symmetry_Int_Tables_number       1
_symmetry_cell_setting            triclinic
loop_
_symmetry_equiv_pos_as_xyz
  x,y,z
_cell_length_a                    12.4699
_cell_length_b                    12.7329
_cell_length_c                    19.9822
_cell_angle_alpha                 90.0000
_cell_angle_beta                  90.0000
_cell_angle_gamma                 90.0000
loop_
_atom_site_label
_atom_site_type_symbol
_atom_site_fract_x
_atom_site_fract_y
_atom_site_fract_z
_atom_site_U_iso_or_equiv
_atom_site_adp_type
_atom_site_occupancy
C001   C     0.05207   0.04545   0.15559   1.00000  Uiso   1.00
C002   C     0.15255   0.10038   0.15501   1.00000  Uiso   1.00
C003   C     0.15196   0.21161   0.15324   1.00000  Uiso   1.00
C004   C     0.05209   0.26686   0.15218   1.00000  Uiso   1.00
C005   C     0.25332   0.04587   0.15573   1.00000  Uiso   1.00
C006   C     0.35341   0.10203   0.15568   1.00000  Uiso   1.00
C007   C     0.35239   0.21460   0.15451   1.00000  Uiso   1.00
C008   C     0.25130   0.26742   0.15265   1.00000  Uiso   1.00
C009   C     0.45348   0.04654   0.15691   1.00000  Uiso   1.00
C010   C     0.55215   0.10561   0.15743   1.00000  Uiso   1.00
C011   C     0.55217   0.22006   0.15785   1.00000  Uiso   1.00
C012   C     0.45047   0.27529   0.15631   1.00000  Uiso   1.00
C013   C     0.65076   0.04670   0.15702   1.00000  Uiso   1.00
C014   C     0.75070   0.10221   0.15580   1.00000  Uiso   1.00
C015   C     0.75165   0.21487   0.15499   1.00000  Uiso   1.00
C016   C     0.65359   0.27538   0.15709   1.00000  Uiso   1.00
C017   C     0.85084   0.04586   0.15573   1.00000  Uiso   1.00
C018   C     0.95166   0.10032   0.15505   1.00000  Uiso   1.00
C019   C     0.95227   0.21169   0.15343   1.00000  Uiso   1.00
C020   C     0.85297   0.26753   0.15316   1.00000  Uiso   1.00
C021   C     0.05213   0.37824   0.15050   1.00000  Uiso   1.00
C022   C     0.15079   0.43426   0.15001   1.00000  Uiso   1.00
C023   C     0.15078   0.54545   0.15045   1.00000  Uiso   1.00
C024   C     0.05214   0.60146   0.15135   1.00000  Uiso   1.00
C025   C     0.24964   0.37865   0.15081   1.00000  Uiso   1.00
C026   C     0.34819   0.43366   0.15212   1.00000  Uiso   1.00
C027   C     0.34818   0.54605   0.15246   1.00000  Uiso   1.00
C028   C     0.24963   0.60105   0.15155   1.00000  Uiso   1.00
C029   C     0.75637   0.43384   0.15349   1.00000  Uiso   1.00
C030   C     0.75637   0.54586   0.15381   1.00000  Uiso   1.00
C031   C     0.85475   0.37856   0.15156   1.00000  Uiso   1.00
C032   C     0.95355   0.43419   0.15041   1.00000  Uiso   1.00
C033   C     0.95356   0.54551   0.15085   1.00000  Uiso   1.00
C034   C     0.85477   0.60114   0.15230   1.00000  Uiso   1.00
C035   C     0.05209   0.71282   0.15347   1.00000  Uiso   1.00
C036   C     0.15195   0.76807   0.15448   1.00000  Uiso   1.00
C037   C     0.05207   0.93426   0.15603   1.00000  Uiso   1.00
C038   C     0.25129   0.71227   0.15376   1.00000  Uiso   1.00
C039   C     0.35238   0.76509   0.15544   1.00000  Uiso   1.00
C040   C     0.35340   0.87766   0.15628   1.00000  Uiso   1.00
C041   C     0.25332   0.93383   0.15611   1.00000  Uiso   1.00
C042   C     0.45047   0.70439   0.15707   1.00000  Uiso   1.00
C043   C     0.55217   0.75962   0.15857   1.00000  Uiso   1.00
C044   C     0.55215   0.87408   0.15791   1.00000  Uiso   1.00
C045   C     0.45348   0.93315   0.15718   1.00000  Uiso   1.00
C046   C     0.65359   0.70429   0.15783   1.00000  Uiso   1.00
C047   C     0.75165   0.76481   0.15590   1.00000  Uiso   1.00
C048   C     0.75070   0.87747   0.15640   1.00000  Uiso   1.00
C049   C     0.65075   0.93299   0.15729   1.00000  Uiso   1.00
C050   C     0.85298   0.71216   0.15427   1.00000  Uiso   1.00
C051   C     0.95227   0.76800   0.15466   1.00000  Uiso   1.00
C052   C     0.85084   0.93383   0.15610   1.00000  Uiso   1.00
C053   C     0.15254   0.87932   0.15581   1.00000  Uiso   1.00
C054   C     0.95166   0.87938   0.15584   1.00000  Uiso   1.00
N001   N     0.44534   0.38368   0.15629   1.00000  Uiso   1.00
N002   N     0.44533   0.59600   0.15680   1.00000  Uiso   1.00
N003   N     0.65879   0.38460   0.15806   1.00000  Uiso   1.00
N004   N     0.65879   0.59506   0.15851   1.00000  Uiso   1.00
N005   N     0.55732   0.48873   0.26390   1.00000  Uiso   1.00
O001   O     0.58410   0.48706   0.32157   1.00000  Uiso   1.00
Fe001  Fe    0.55247   0.48965   0.18136   1.00000  Uiso   1.00
loop_
_geom_bond_atom_site_label_1
_geom_bond_atom_site_label_2
_geom_bond_distance
_geom_bond_site_symmetry_2
_ccdc_geom_bond_type
C001   C002    1.435   .     D
C001   C018    1.434   1_455 S
C001   C037    1.416   1_545 S
C002   C003    1.417   .     S
C002   C005    1.436   .     S
C003   C004    1.430   .     D
C003   C008    1.428   .     S
C004   C019    1.430   1_455 S
C004   C021    1.419   .     S
C005   C006    1.438   .     S
C005   C041    1.427   1_545 D
C006   C007    1.434   .     S
C006   C009    1.434   .     D
C007   C008    1.429   .     S
C007   C012    1.447   .     D
C008   C025    1.417   .     D
C009   C010    1.442   .     S
C009   C045    1.444   1_545 S
C010   C011    1.457   .     D
C010   C013    1.440   .     S
C011   C012    1.450   .     S
C011   C016    1.448   .     S
C012   N001    1.382   .     S
C013   C014    1.433   .     D
C013   C049    1.448   1_545 S
C014   C015    1.435   .     S
C014   C017    1.440   .     S
C015   C016    1.446   .     S
C015   C020    1.431   .     D
C016   N003    1.392   .     D
C017   C018    1.436   .     S
C017   C052    1.426   1_545 D
C018   C001    1.434   1_655 S
C018   C019    1.418   .     D
C019   C004    1.430   1_655 S
C019   C020    1.428   .     S
C020   C031    1.414   .     S
C021   C022    1.422   .     D
C021   C032    1.421   1_455 S
C022   C023    1.416   .     S
C022   C025    1.422   .     S
C023   C024    1.422   .     D
C023   C028    1.422   .     S
C024   C033    1.421   1_455 S
C024   C035    1.419   .     S
C025   C026    1.415   .     S
C026   C027    1.431   .     S
C026   N001    1.371   .     D
C027   C028    1.415   .     S
C027   N002    1.371   .     D
C028   C038    1.417   .     D
C029   C030    1.426   .     S
C029   C031    1.415   .     D
C029   N003    1.372   .     S
C030   C034    1.415   .     S
C030   N004    1.372   .     D
C031   C032    1.421   .     S
C032   C021    1.421   1_655 S
C032   C033    1.417   .     D
C033   C024    1.421   1_655 S
C033   C034    1.421   .     S
C034   C050    1.414   .     D
C035   C036    1.430   .     S
C035   C051    1.430   1_455 D
C036   C038    1.428   .     S
C036   C053    1.417   .     D
C037   C001    1.416   1_565 S
C037   C053    1.435   .     S
C037   C054    1.434   1_455 D
C038   C039    1.429   .     S
C039   C040    1.434   .     S
C039   C042    1.447   .     D
C040   C041    1.438   .     S
C040   C045    1.434   .     D
C041   C005    1.427   1_565 D
C041   C053    1.436   .     S
C042   C043    1.450   .     S
C042   N002    1.382   .     S
C043   C044    1.457   .     S
C043   C046    1.448   .     D
C044   C045    1.442   .     S
C044   C049    1.440   .     D
C045   C009    1.444   1_565 S
C046   C047    1.446   .     S
C046   N004    1.392   .     S
C047   C048    1.435   .     D
C047   C050    1.431   .     S
C048   C049    1.433   .     S
C048   C052    1.440   .     S
C049   C013    1.448   1_565 S
C050   C051    1.428   .     S
C051   C035    1.430   1_655 D
C051   C054    1.418   .     S
C052   C017    1.426   1_565 D
C052   C054    1.436   .     S
C054   C037    1.434   1_655 D
N001   Fe001   1.964   .     S
N002   Fe001   1.965   .     S
N003   Fe001   1.940   .     S
N004   Fe001   1.941   .     S
N005   O001    1.200   .     D
N005   Fe001   1.650   .     S
