data_e-1.0-opt
_audit_creation_date              2024-12-22
_audit_creation_method            'Materials Studio'
_symmetry_space_group_name_H-M    'P1'
_symmetry_Int_Tables_number       1
_symmetry_cell_setting            triclinic
loop_
_symmetry_equiv_pos_as_xyz
  x,y,z
_cell_length_a                    12.4699
_cell_length_b                    12.7329
_cell_length_c                    19.9822
_cell_angle_alpha                 90.0000
_cell_angle_beta                  90.0000
_cell_angle_gamma                 90.0000
loop_
_atom_site_label
_atom_site_type_symbol
_atom_site_fract_x
_atom_site_fract_y
_atom_site_fract_z
_atom_site_U_iso_or_equiv
_atom_site_adp_type
_atom_site_occupancy
C001   C     0.05212   0.04540   0.15533   1.00000  Uiso   1.00
C002   C     0.15259   0.10031   0.15477   1.00000  Uiso   1.00
C003   C     0.15202   0.21163   0.15298   1.00000  Uiso   1.00
C004   C     0.05215   0.26684   0.15184   1.00000  Uiso   1.00
C005   C     0.25335   0.04589   0.15552   1.00000  Uiso   1.00
C006   C     0.35346   0.10211   0.15567   1.00000  Uiso   1.00
C007   C     0.35247   0.21463   0.15480   1.00000  Uiso   1.00
C008   C     0.25128   0.26738   0.15272   1.00000  Uiso   1.00
C009   C     0.45353   0.04659   0.15693   1.00000  Uiso   1.00
C010   C     0.55214   0.10546   0.15750   1.00000  Uiso   1.00
C011   C     0.55215   0.22014   0.15813   1.00000  Uiso   1.00
C012   C     0.45054   0.27525   0.15714   1.00000  Uiso   1.00
C013   C     0.65073   0.04664   0.15702   1.00000  Uiso   1.00
C014   C     0.75078   0.10215   0.15586   1.00000  Uiso   1.00
C015   C     0.75178   0.21469   0.15515   1.00000  Uiso   1.00
C016   C     0.65370   0.27525   0.15735   1.00000  Uiso   1.00
C017   C     0.85090   0.04589   0.15565   1.00000  Uiso   1.00
C018   C     0.95168   0.10029   0.15488   1.00000  Uiso   1.00
C019   C     0.95228   0.21165   0.15322   1.00000  Uiso   1.00
C020   C     0.85306   0.26740   0.15318   1.00000  Uiso   1.00
C021   C     0.05219   0.37819   0.15009   1.00000  Uiso   1.00
C022   C     0.15080   0.43418   0.14969   1.00000  Uiso   1.00
C023   C     0.15080   0.54553   0.15009   1.00000  Uiso   1.00
C024   C     0.05219   0.60151   0.15087   1.00000  Uiso   1.00
C025   C     0.24957   0.37864   0.15102   1.00000  Uiso   1.00
C026   C     0.34800   0.43376   0.15315   1.00000  Uiso   1.00
C027   C     0.34800   0.54594   0.15346   1.00000  Uiso   1.00
C028   C     0.24956   0.60106   0.15170   1.00000  Uiso   1.00
C029   C     0.75653   0.43381   0.15365   1.00000  Uiso   1.00
C030   C     0.75653   0.54589   0.15395   1.00000  Uiso   1.00
C031   C     0.85487   0.37860   0.15165   1.00000  Uiso   1.00
C032   C     0.95362   0.43416   0.15016   1.00000  Uiso   1.00
C033   C     0.95362   0.54555   0.15056   1.00000  Uiso   1.00
C034   C     0.85489   0.60110   0.15233   1.00000  Uiso   1.00
C035   C     0.05215   0.71284   0.15304   1.00000  Uiso   1.00
C036   C     0.15201   0.76805   0.15413   1.00000  Uiso   1.00
C037   C     0.05212   0.93429   0.15574   1.00000  Uiso   1.00
C038   C     0.25127   0.71230   0.15375   1.00000  Uiso   1.00
C039   C     0.35246   0.76505   0.15566   1.00000  Uiso   1.00
C040   C     0.35345   0.87757   0.15622   1.00000  Uiso   1.00
C041   C     0.25335   0.93379   0.15587   1.00000  Uiso   1.00
C042   C     0.45054   0.70441   0.15785   1.00000  Uiso   1.00
C043   C     0.55215   0.75953   0.15879   1.00000  Uiso   1.00
C044   C     0.55214   0.87421   0.15794   1.00000  Uiso   1.00
C045   C     0.45353   0.93308   0.15717   1.00000  Uiso   1.00
C046   C     0.65370   0.70441   0.15805   1.00000  Uiso   1.00
C047   C     0.75178   0.76498   0.15600   1.00000  Uiso   1.00
C048   C     0.75078   0.87753   0.15641   1.00000  Uiso   1.00
C049   C     0.65073   0.93304   0.15726   1.00000  Uiso   1.00
C050   C     0.85307   0.71228   0.15421   1.00000  Uiso   1.00
C051   C     0.95229   0.76803   0.15436   1.00000  Uiso   1.00
C052   C     0.85090   0.93380   0.15600   1.00000  Uiso   1.00
C053   C     0.15259   0.87938   0.15551   1.00000  Uiso   1.00
C054   C     0.95168   0.87940   0.15562   1.00000  Uiso   1.00
N001   N     0.44547   0.38407   0.15753   1.00000  Uiso   1.00
N002   N     0.44547   0.59559   0.15802   1.00000  Uiso   1.00
N003   N     0.65889   0.38428   0.15765   1.00000  Uiso   1.00
N004   N     0.65889   0.59538   0.15813   1.00000  Uiso   1.00
N005   N     0.56053   0.48868   0.26341   1.00000  Uiso   1.00
O001   O     0.57798   0.48733   0.32094   1.00000  Uiso   1.00
Fe001  Fe    0.55270   0.48966   0.18063   1.00000  Uiso   1.00
loop_
_geom_bond_atom_site_label_1
_geom_bond_atom_site_label_2
_geom_bond_distance
_geom_bond_site_symmetry_2
_ccdc_geom_bond_type
C001   C002    1.435   .     D
C001   C018    1.434   1_455 S
C001   C037    1.415   1_545 S
C002   C003    1.418   .     S
C002   C005    1.435   .     S
C003   C004    1.430   .     D
C003   C008    1.427   .     S
C004   C019    1.430   1_455 S
C004   C021    1.418   .     S
C005   C006    1.439   .     S
C005   C041    1.427   1_545 D
C006   C007    1.433   .     S
C006   C009    1.434   .     D
C007   C008    1.430   .     S
C007   C012    1.447   .     D
C008   C025    1.417   .     D
C009   C010    1.440   .     S
C009   C045    1.445   1_545 S
C010   C011    1.460   .     D
C010   C013    1.440   .     S
C011   C012    1.449   .     S
C011   C016    1.448   .     S
C012   N001    1.387   .     S
C013   C014    1.434   .     D
C013   C049    1.446   1_545 S
C014   C015    1.433   .     S
C014   C017    1.439   .     S
C015   C016    1.446   .     S
C015   C020    1.431   .     D
C016   N003    1.390   .     D
C017   C018    1.435   .     S
C017   C052    1.427   1_545 D
C018   C001    1.434   1_655 S
C018   C019    1.418   .     D
C019   C004    1.430   1_655 S
C019   C020    1.426   .     S
C020   C031    1.416   .     S
C021   C022    1.421   .     D
C021   C032    1.421   1_455 S
C022   C023    1.418   .     S
C022   C025    1.421   .     S
C023   C024    1.421   .     D
C023   C028    1.420   .     S
C024   C033    1.421   1_455 S
C024   C035    1.418   .     S
C025   C026    1.415   .     S
C026   C027    1.428   .     S
C026   N001    1.373   .     D
C027   C028    1.414   .     S
C027   N002    1.373   .     D
C028   C038    1.417   .     D
C029   C030    1.427   .     S
C029   C031    1.414   .     D
C029   N003    1.373   .     S
C030   C034    1.414   .     S
C030   N004    1.373   .     D
C031   C032    1.420   .     S
C032   C021    1.421   1_655 S
C032   C033    1.418   .     D
C033   C024    1.421   1_655 S
C033   C034    1.420   .     S
C034   C050    1.416   .     D
C035   C036    1.430   .     S
C035   C051    1.430   1_455 D
C036   C038    1.427   .     S
C036   C053    1.418   .     D
C037   C001    1.415   1_565 S
C037   C053    1.435   .     S
C037   C054    1.434   1_455 D
C038   C039    1.430   .     S
C039   C040    1.433   .     S
C039   C042    1.447   .     D
C040   C041    1.439   .     S
C040   C045    1.434   .     D
C041   C005    1.427   1_565 D
C041   C053    1.435   .     S
C042   C043    1.449   .     S
C042   N002    1.387   .     S
C043   C044    1.460   .     S
C043   C046    1.448   .     D
C044   C045    1.440   .     S
C044   C049    1.440   .     D
C045   C009    1.445   1_565 S
C046   C047    1.447   .     S
C046   N004    1.390   .     S
C047   C048    1.433   .     D
C047   C050    1.431   .     S
C048   C049    1.434   .     S
C048   C052    1.439   .     S
C049   C013    1.446   1_565 S
C050   C051    1.426   .     S
C051   C035    1.430   1_655 D
C051   C054    1.418   .     S
C052   C017    1.427   1_565 D
C052   C054    1.435   .     S
C054   C037    1.434   1_655 D
N001   Fe001   1.952   .     S
N002   Fe001   1.952   .     S
N003   Fe001   1.940   .     S
N004   Fe001   1.941   .     S
N005   O001    1.170   .     D
N005   Fe001   1.657   .     S
